/*---------------------------------------------------------------------------*\
  =========                 |
  \\      /  F ield         | OpenFOAM: The Open Source CFD Toolbox
   \\    /   O peration     | Website:  https://openfoam.org
    \\  /    A nd           | Version:  10
     \\/     M anipulation  |
\*---------------------------------------------------------------------------*/
Build  : 10-c4cf895ad8fa
Exec   : impesSgFoam
Date   : Feb 28 2025
Time   : 21:51:55
Host   : "HWLAP0350-EPS"
PID    : 28046
I/O    : uncollated
Case   : /home/ap2095/OpenFOAM/ap2095-10/run/6pitzdaily_impesSgfoam_gas_inj_3s
nProcs : 1
sigFpe : Enabling floating point exception trapping (FOAM_SIGFPE).
fileModificationChecking : Monitoring run-time modified files using timeStampMaster (fileModificationSkew 10)
allowSystemOperations : Allowing user-supplied system call operations

// * * * * * * * * * * * * * * * * * * * * * * * * * * * * * * * * * * * * * //

**********************************
Current version of PMF is 2310.0.0
**********************************

Create time

Create mesh for time = 0


Reading g
Reading pressure field p

Reading saturation field Sb

Reading transportProperties
Sbmax = 0.999999 [0 0 0 0 0 0 0] 0.999999
Sbmin = 1e-06 [0 0 0 0 0 0 0] 1e-06

Computing field phia from field Ua

Computing field phib from field Ub

Selecting porousMedium model => simplePorosity

Selecting capillarity model for field Sb => BrooksAndCorey

Brooks and Corey parameters for capillarity pressure model
{
    Sbmin 1e-06
    Sbmax 0.999999
    pc0 5
    alpha 0.2
    hd 0
} 

Selecting relativePermeability model for field Sb => BrooksAndCorey

Brooks and Corey parameters for relative permeability model
{
    Sbmin 1e-06
    Sbmax 0.999999
    n 4
    kramax 1
    krbmax 1
} 


Reading field U
Reading/calculating face flux field phi


Reading Event file 'injection.evt' ...OK!
{
  number of dates       = 2
  number of coordinates = 1
  number datas          = 2
}

Starting time loop

Coats CFL Number mean: 2.60562e-25 max: 4.08193e-24
deltaT = 0.000119904
Time = 0.000119904

diagonal:  Solving for Sb, Initial residual = 0, Final residual = 0, No Iterations 0
Saturation b:  Min(Sb) = 1.1e-06 Max(Sb) = 0.0490218
DICPCG:  Solving for p, Initial residual = 1, Final residual = 7.67718e-13, No Iterations 292
ExecutionTime = 0.46875 s  ClockTime = 1 s

Coats CFL Number mean: 4.27448e-08 max: 0.000522555
deltaT = 0.000143712
Time = 0.000263616

diagonal:  Solving for Sb, Initial residual = 0, Final residual = 0, No Iterations 0
Saturation b:  Min(Sb) = 1.1e-06 Max(Sb) = 0.107771
DICPCG:  Solving for p, Initial residual = 0.0166379, Final residual = 9.02806e-13, No Iterations 264
ExecutionTime = 0.578125 s  ClockTime = 1 s

Coats CFL Number mean: 7.43418e-07 max: 0.00908829
deltaT = 0.000172256
Time = 0.000435873

diagonal:  Solving for Sb, Initial residual = 0, Final residual = 0, No Iterations 0
Saturation b:  Min(Sb) = 1.1e-06 Max(Sb) = 0.178019
DICPCG:  Solving for p, Initial residual = 0.00480589, Final residual = 9.55178e-13, No Iterations 245
ExecutionTime = 0.734375 s  ClockTime = 1 s

Coats CFL Number mean: 5.6511e-06 max: 0.0690846
deltaT = 0.000206565
Time = 0.000642437

diagonal:  Solving for Sb, Initial residual = 0, Final residual = 0, No Iterations 0
Saturation b:  Min(Sb) = 1.1e-06 Max(Sb) = 0.260364
DICPCG:  Solving for p, Initial residual = 0.00435907, Final residual = 8.03798e-13, No Iterations 256
ExecutionTime = 0.828125 s  ClockTime = 1 s

Coats CFL Number mean: 2.40325e-05 max: 0.293797
deltaT = 0.000247774
Time = 0.000890212

diagonal:  Solving for Sb, Initial residual = 0, Final residual = 0, No Iterations 0
Saturation b:  Min(Sb) = 1.1e-06 Max(Sb) = 0.346651
DICPCG:  Solving for p, Initial residual = 0.00242415, Final residual = 9.22402e-13, No Iterations 260
ExecutionTime = 0.921875 s  ClockTime = 1 s

Coats CFL Number mean: 3.55926e-05 max: 0.435113
deltaT = 0.000289795
Time = 0.00118001

diagonal:  Solving for Sb, Initial residual = 0, Final residual = 0, No Iterations 0
Saturation b:  Min(Sb) = 1.1e-06 Max(Sb) = 0.410535
DICPCG:  Solving for p, Initial residual = 0.00721385, Final residual = 8.41277e-13, No Iterations 259
ExecutionTime = 1.0625 s  ClockTime = 1 s

Coats CFL Number mean: 2.51626e-05 max: 0.306842
deltaT = 0.000346737
Time = 0.00152674

diagonal:  Solving for Sb, Initial residual = 0, Final residual = 0, No Iterations 0
Saturation b:  Min(Sb) = 1.1e-06 Max(Sb) = 0.452603
DICPCG:  Solving for p, Initial residual = 0.00786609, Final residual = 8.90418e-13, No Iterations 256
ExecutionTime = 1.28125 s  ClockTime = 2 s

Coats CFL Number mean: 1.95596e-05 max: 0.221189
deltaT = 0.000415499
Time = 0.00194224

diagonal:  Solving for Sb, Initial residual = 0, Final residual = 0, No Iterations 0
Saturation b:  Min(Sb) = 1.1e-06 Max(Sb) = 0.484432
DICPCG:  Solving for p, Initial residual = 0.0080117, Final residual = 7.83389e-13, No Iterations 256
ExecutionTime = 1.40625 s  ClockTime = 2 s

Coats CFL Number mean: 2.96174e-05 max: 0.172284
deltaT = 0.000497755
Time = 0.00244

diagonal:  Solving for Sb, Initial residual = 0, Final residual = 0, No Iterations 0
Saturation b:  Min(Sb) = 1.1e-06 Max(Sb) = 0.51172
DICPCG:  Solving for p, Initial residual = 0.00773406, Final residual = 8.35569e-13, No Iterations 257
ExecutionTime = 1.54688 s  ClockTime = 2 s

Coats CFL Number mean: 9.23302e-05 max: 0.840292
deltaT = 0.000443455
Time = 0.00288345

diagonal:  Solving for Sb, Initial residual = 0, Final residual = 0, No Iterations 0
Saturation b:  Min(Sb) = 1.1e-06 Max(Sb) = 0.530753
DICPCG:  Solving for p, Initial residual = 0.00442001, Final residual = 8.94304e-13, No Iterations 257
ExecutionTime = 1.64062 s  ClockTime = 2 s

Coats CFL Number mean: 0.000105733 max: 0.868851
deltaT = 0.000382349
Time = 0.0032658

diagonal:  Solving for Sb, Initial residual = 0, Final residual = 0, No Iterations 0
Saturation b:  Min(Sb) = 1.1e-06 Max(Sb) = 0.544496
DICPCG:  Solving for p, Initial residual = 0.00367987, Final residual = 8.60828e-13, No Iterations 256
ExecutionTime = 1.78125 s  ClockTime = 2 s

Coats CFL Number mean: 8.48308e-05 max: 0.570192
deltaT = 0.000431849
Time = 0.00369765

diagonal:  Solving for Sb, Initial residual = 0, Final residual = 0, No Iterations 0
Saturation b:  Min(Sb) = 1.1e-06 Max(Sb) = 0.557777
DICPCG:  Solving for p, Initial residual = 0.00453587, Final residual = 8.60728e-13, No Iterations 256
ExecutionTime = 1.89062 s  ClockTime = 2 s

Coats CFL Number mean: 8.26229e-05 max: 0.488813
deltaT = 0.000496404
Time = 0.00419405

diagonal:  Solving for Sb, Initial residual = 0, Final residual = 0, No Iterations 0
Saturation b:  Min(Sb) = 1.1e-06 Max(Sb) = 0.570757
DICPCG:  Solving for p, Initial residual = 0.00540266, Final residual = 8.21868e-13, No Iterations 256
ExecutionTime = 2.0625 s  ClockTime = 2 s

Coats CFL Number mean: 8.34928e-05 max: 0.518896
deltaT = 0.000566899
Time = 0.00476095

diagonal:  Solving for Sb, Initial residual = 0, Final residual = 0, No Iterations 0
Saturation b:  Min(Sb) = 1.1e-06 Max(Sb) = 0.583474
DICPCG:  Solving for p, Initial residual = 0.00597798, Final residual = 7.83826e-13, No Iterations 257
ExecutionTime = 2.14062 s  ClockTime = 2 s

Coats CFL Number mean: 0.000108396 max: 0.510429
deltaT = 0.000647885
Time = 0.00540884

diagonal:  Solving for Sb, Initial residual = 0, Final residual = 0, No Iterations 0
Saturation b:  Min(Sb) = 1.1e-06 Max(Sb) = 0.596213
DICPCG:  Solving for p, Initial residual = 0.00534874, Final residual = 9.98161e-13, No Iterations 257
ExecutionTime = 2.23438 s  ClockTime = 3 s

Coats CFL Number mean: 0.000163793 max: 0.963624
deltaT = 0.000503144
Time = 0.00591198

diagonal:  Solving for Sb, Initial residual = 0, Final residual = 0, No Iterations 0
Saturation b:  Min(Sb) = 1.09995e-06 Max(Sb) = 0.604965
DICPCG:  Solving for p, Initial residual = 0.00321044, Final residual = 9.6029e-13, No Iterations 256
ExecutionTime = 2.45312 s  ClockTime = 3 s

Coats CFL Number mean: 0.000125544 max: 0.671815
deltaT = 0.000556734
Time = 0.00646872

diagonal:  Solving for Sb, Initial residual = 0, Final residual = 0, No Iterations 0
Saturation b:  Min(Sb) = 1.1e-06 Max(Sb) = 0.613732
DICPCG:  Solving for p, Initial residual = 0.00383269, Final residual = 8.74147e-13, No Iterations 256
ExecutionTime = 2.5625 s  ClockTime = 3 s

Coats CFL Number mean: 0.000124695 max: 0.540449
deltaT = 0.000631968
Time = 0.00710068

diagonal:  Solving for Sb, Initial residual = 0, Final residual = 0, No Iterations 0
Saturation b:  Min(Sb) = 1.1e-06 Max(Sb) = 0.622623
DICPCG:  Solving for p, Initial residual = 0.004388, Final residual = 9.06996e-13, No Iterations 256
ExecutionTime = 2.76562 s  ClockTime = 3 s

Coats CFL Number mean: 0.000125342 max: 0.567373
deltaT = 0.00071461
Time = 0.00781529

diagonal:  Solving for Sb, Initial residual = 0, Final residual = 0, No Iterations 0
Saturation b:  Min(Sb) = 1.1e-06 Max(Sb) = 0.631587
DICPCG:  Solving for p, Initial residual = 0.00510733, Final residual = 9.74016e-13, No Iterations 256
ExecutionTime = 2.90625 s  ClockTime = 3 s

Coats CFL Number mean: 0.000143296 max: 0.584823
deltaT = 0.000801606
Time = 0.0086169

diagonal:  Solving for Sb, Initial residual = 0, Final residual = 0, No Iterations 0
Saturation b:  Min(Sb) = 1.1e-06 Max(Sb) = 0.640646
DICPCG:  Solving for p, Initial residual = 0.00512912, Final residual = 7.66489e-13, No Iterations 258
ExecutionTime = 3.01562 s  ClockTime = 3 s

Coats CFL Number mean: 0.000206606 max: 0.896004
deltaT = 0.00066703
Time = 0.00928393

diagonal:  Solving for Sb, Initial residual = 0, Final residual = 0, No Iterations 0
Saturation b:  Min(Sb) = 1.1e-06 Max(Sb) = 0.647522
DICPCG:  Solving for p, Initial residual = 0.00337333, Final residual = 8.2287e-13, No Iterations 257
ExecutionTime = 3.21875 s  ClockTime = 4 s

Coats CFL Number mean: 0.000183032 max: 0.796671
deltaT = 0.000625628
Time = 0.00990956

diagonal:  Solving for Sb, Initial residual = 0, Final residual = 0, No Iterations 0
Saturation b:  Min(Sb) = 1.09078e-06 Max(Sb) = 0.653492
DICPCG:  Solving for p, Initial residual = 0.00306677, Final residual = 8.84753e-13, No Iterations 255
ExecutionTime = 3.29688 s  ClockTime = 4 s

Coats CFL Number mean: 0.000164687 max: 0.578917
deltaT = 0.000703832
Time = 0.0106134

diagonal:  Solving for Sb, Initial residual = 0, Final residual = 0, No Iterations 0
Saturation b:  Min(Sb) = 1.1e-06 Max(Sb) = 0.659706
DICPCG:  Solving for p, Initial residual = 0.00373409, Final residual = 9.65252e-13, No Iterations 256
ExecutionTime = 3.48438 s  ClockTime = 4 s

Coats CFL Number mean: 0.000173302 max: 0.510981
deltaT = 0.000805285
Time = 0.0114187

diagonal:  Solving for Sb, Initial residual = 0, Final residual = 0, No Iterations 0
Saturation b:  Min(Sb) = 1.1e-06 Max(Sb) = 0.66624
DICPCG:  Solving for p, Initial residual = 0.0043675, Final residual = 9.70488e-13, No Iterations 256
ExecutionTime = 3.57812 s  ClockTime = 4 s

Coats CFL Number mean: 0.000193073 max: 0.59486
deltaT = 0.000903891
Time = 0.0123226

diagonal:  Solving for Sb, Initial residual = 0, Final residual = 0, No Iterations 0
Saturation b:  Min(Sb) = 1.1e-06 Max(Sb) = 0.672984
DICPCG:  Solving for p, Initial residual = 0.00470093, Final residual = 9.90914e-13, No Iterations 257
ExecutionTime = 3.73438 s  ClockTime = 4 s

Coats CFL Number mean: 0.00025106 max: 0.786648
deltaT = 0.000859583
Time = 0.0131821

diagonal:  Solving for Sb, Initial residual = 0, Final residual = 0, No Iterations 0
Saturation b:  Min(Sb) = 1.1e-06 Max(Sb) = 0.678927
DICPCG:  Solving for p, Initial residual = 0.00380983, Final residual = 9.26798e-13, No Iterations 257
ExecutionTime = 3.82812 s  ClockTime = 4 s

Coats CFL Number mean: 0.0002528 max: 0.928322
deltaT = 0.000689031
Time = 0.0138712

diagonal:  Solving for Sb, Initial residual = 0, Final residual = 0, No Iterations 0
Saturation b:  Min(Sb) = 1.09284e-06 Max(Sb) = 0.683368
DICPCG:  Solving for p, Initial residual = 0.00282629, Final residual = 8.62468e-13, No Iterations 256
ExecutionTime = 3.95312 s  ClockTime = 4 s

Coats CFL Number mean: 0.000194773 max: 0.593212
deltaT = 0.000775935
Time = 0.0146471

diagonal:  Solving for Sb, Initial residual = 0, Final residual = 0, No Iterations 0
Saturation b:  Min(Sb) = 1.1e-06 Max(Sb) = 0.688074
DICPCG:  Solving for p, Initial residual = 0.00345935, Final residual = 9.88614e-13, No Iterations 256
ExecutionTime = 4.03125 s  ClockTime = 4 s

Coats CFL Number mean: 0.000210363 max: 0.484843
deltaT = 0.000889093
Time = 0.0155362

diagonal:  Solving for Sb, Initial residual = 0, Final residual = 0, No Iterations 0
Saturation b:  Min(Sb) = 9.03663e-08 Max(Sb) = 0.693118
DICPCG:  Solving for p, Initial residual = 0.00402221, Final residual = 8.71949e-13, No Iterations 257
ExecutionTime = 4.125 s  ClockTime = 5 s

Coats CFL Number mean: 0.000240032 max: 0.554126
deltaT = 0.00100552
Time = 0.0165417

diagonal:  Solving for Sb, Initial residual = 0, Final residual = 0, No Iterations 0
Saturation b:  Min(Sb) = 1.1e-06 Max(Sb) = 0.69845
DICPCG:  Solving for p, Initial residual = 0.00454765, Final residual = 9.69232e-13, No Iterations 257
ExecutionTime = 4.25 s  ClockTime = 5 s

Coats CFL Number mean: 0.00031018 max: 0.827484
deltaT = 0.000907155
Time = 0.0174489

diagonal:  Solving for Sb, Initial residual = 0, Final residual = 0, No Iterations 0
Saturation b:  Min(Sb) = 1.1e-06 Max(Sb) = 0.702962
DICPCG:  Solving for p, Initial residual = 0.00346454, Final residual = 9.0111e-13, No Iterations 257
ExecutionTime = 4.34375 s  ClockTime = 5 s

Coats CFL Number mean: 0.000290875 max: 0.907316
deltaT = 0.000743704
Time = 0.0181926

diagonal:  Solving for Sb, Initial residual = 0, Final residual = 0, No Iterations 0
Saturation b:  Min(Sb) = 1.08929e-06 Max(Sb) = 0.706458
DICPCG:  Solving for p, Initial residual = 0.00273571, Final residual = 8.59858e-13, No Iterations 256
ExecutionTime = 4.5 s  ClockTime = 5 s

Coats CFL Number mean: 0.000231302 max: 0.59728
deltaT = 0.00083477
Time = 0.0190274

diagonal:  Solving for Sb, Initial residual = 0, Final residual = 0, No Iterations 0
Saturation b:  Min(Sb) = 1.09743e-06 Max(Sb) = 0.710192
DICPCG:  Solving for p, Initial residual = 0.00320357, Final residual = 9.72659e-13, No Iterations 256
ExecutionTime = 4.60938 s  ClockTime = 5 s

Coats CFL Number mean: 0.000256169 max: 0.492197
deltaT = 0.000952619
Time = 0.01998

diagonal:  Solving for Sb, Initial residual = 0, Final residual = 0, No Iterations 0
Saturation b:  Min(Sb) = -3.62688e-06 Max(Sb) = 0.71423
DICPCG:  Solving for p, Initial residual = 0.0037346, Final residual = 9.05607e-13, No Iterations 257
ExecutionTime = 4.73438 s  ClockTime = 5 s

Coats CFL Number mean: 0.000302449 max: 0.470191
deltaT = 0.00109616
Time = 0.0210761

diagonal:  Solving for Sb, Initial residual = 0, Final residual = 0, No Iterations 0
Saturation b:  Min(Sb) = 1.1e-06 Max(Sb) = 0.718628
DICPCG:  Solving for p, Initial residual = 0.00410735, Final residual = 9.606e-13, No Iterations 257
ExecutionTime = 4.89062 s  ClockTime = 5 s

Coats CFL Number mean: 0.000395058 max: 0.934452
deltaT = 0.000876932
Time = 0.0219531

diagonal:  Solving for Sb, Initial residual = 0, Final residual = 0, No Iterations 0
Saturation b:  Min(Sb) = 1.1e-06 Max(Sb) = 0.721955
DICPCG:  Solving for p, Initial residual = 0.00295099, Final residual = 8.67264e-13, No Iterations 257
ExecutionTime = 5.04688 s  ClockTime = 5 s

Coats CFL Number mean: 0.000316022 max: 0.82982
deltaT = 0.000788353
Time = 0.0227414

diagonal:  Solving for Sb, Initial residual = 0, Final residual = 0, No Iterations 0
Saturation b:  Min(Sb) = 1.0779e-06 Max(Sb) = 0.724811
DICPCG:  Solving for p, Initial residual = 0.00276338, Final residual = 9.5581e-13, No Iterations 256
ExecutionTime = 5.23438 s  ClockTime = 6 s

Coats CFL Number mean: 0.000269881 max: 0.593936
deltaT = 0.000877938
Time = 0.0236194

diagonal:  Solving for Sb, Initial residual = 0, Final residual = 0, No Iterations 0
Saturation b:  Min(Sb) = 1.08267e-06 Max(Sb) = 0.727859
DICPCG:  Solving for p, Initial residual = 0.00316636, Final residual = 9.44069e-13, No Iterations 256
ExecutionTime = 5.39062 s  ClockTime = 6 s

Coats CFL Number mean: 0.000292079 max: 0.488496
deltaT = 0.00100501
Time = 0.0246244

diagonal:  Solving for Sb, Initial residual = 0, Final residual = 0, No Iterations 0
Saturation b:  Min(Sb) = -7.83425e-06 Max(Sb) = 0.731193
DICPCG:  Solving for p, Initial residual = 0.00359231, Final residual = 8.69933e-13, No Iterations 257
ExecutionTime = 5.48438 s  ClockTime = 6 s

Coats CFL Number mean: 0.000349954 max: 0.438016
deltaT = 0.00115963
Time = 0.025784

diagonal:  Solving for Sb, Initial residual = 0, Final residual = 0, No Iterations 0
Saturation b:  Min(Sb) = -4.47383e-06 Max(Sb) = 0.73487
DICPCG:  Solving for p, Initial residual = 0.00385172, Final residual = 8.67133e-13, No Iterations 258
ExecutionTime = 5.67188 s  ClockTime = 6 s

Coats CFL Number mean: 0.000462776 max: 1.04015
deltaT = 0.000833888
Time = 0.0266179

diagonal:  Solving for Sb, Initial residual = 0, Final residual = 0, No Iterations 0
Saturation b:  Min(Sb) = 1.1e-06 Max(Sb) = 0.737392
DICPCG:  Solving for p, Initial residual = 0.00250896, Final residual = 7.78666e-13, No Iterations 257
ExecutionTime = 5.84375 s  ClockTime = 6 s

Coats CFL Number mean: 0.000329946 max: 0.754216
deltaT = 0.000824518
Time = 0.0274424

diagonal:  Solving for Sb, Initial residual = 0, Final residual = 0, No Iterations 0
Saturation b:  Min(Sb) = 1.04779e-06 Max(Sb) = 0.739793
DICPCG:  Solving for p, Initial residual = 0.00265253, Final residual = 7.8201e-13, No Iterations 257
ExecutionTime = 6.01562 s  ClockTime = 6 s

Coats CFL Number mean: 0.000310153 max: 0.583448
deltaT = 0.000930226
Time = 0.0283726

diagonal:  Solving for Sb, Initial residual = 0, Final residual = 0, No Iterations 0
Saturation b:  Min(Sb) = 1.05186e-06 Max(Sb) = 0.742401
DICPCG:  Solving for p, Initial residual = 0.00317842, Final residual = 8.01261e-13, No Iterations 257
ExecutionTime = 6.15625 s  ClockTime = 7 s

Coats CFL Number mean: 0.000339529 max: 0.483167
deltaT = 0.00106907
Time = 0.0294417

diagonal:  Solving for Sb, Initial residual = 0, Final residual = 0, No Iterations 0
Saturation b:  Min(Sb) = -1.38026e-05 Max(Sb) = 0.745282
DICPCG:  Solving for p, Initial residual = 0.00357748, Final residual = 8.96e-13, No Iterations 257
ExecutionTime = 6.25 s  ClockTime = 7 s

Coats CFL Number mean: 0.000414861 max: 0.46907
deltaT = 0.00121652
Time = 0.0306582

diagonal:  Solving for Sb, Initial residual = 0, Final residual = 0, No Iterations 0
Saturation b:  Min(Sb) = -1.15333e-05 Max(Sb) = 0.748436
DICPCG:  Solving for p, Initial residual = 0.00349676, Final residual = 8.77566e-13, No Iterations 258
ExecutionTime = 6.5625 s  ClockTime = 7 s

Coats CFL Number mean: 0.000537145 max: 1.14674
deltaT = 0.000787975
Time = 0.0314462

diagonal:  Solving for Sb, Initial residual = 0, Final residual = 0, No Iterations 0
Saturation b:  Min(Sb) = 1.1e-06 Max(Sb) = 0.750396
DICPCG:  Solving for p, Initial residual = 0.00213208, Final residual = 8.29599e-13, No Iterations 257
ExecutionTime = 6.64062 s  ClockTime = 7 s

Coats CFL Number mean: 0.000343606 max: 0.666458
deltaT = 0.00086777
Time = 0.032314

diagonal:  Solving for Sb, Initial residual = 0, Final residual = 0, No Iterations 0
Saturation b:  Min(Sb) = 9.07751e-07 Max(Sb) = 0.752488
DICPCG:  Solving for p, Initial residual = 0.0025954, Final residual = 8.78443e-13, No Iterations 257
ExecutionTime = 6.73438 s  ClockTime = 7 s

Coats CFL Number mean: 0.000364487 max: 0.557136
deltaT = 0.000980957
Time = 0.0332949

diagonal:  Solving for Sb, Initial residual = 0, Final residual = 0, No Iterations 0
Saturation b:  Min(Sb) = 9.13587e-07 Max(Sb) = 0.754773
DICPCG:  Solving for p, Initial residual = 0.00313334, Final residual = 7.29564e-13, No Iterations 258
ExecutionTime = 6.84375 s  ClockTime = 7 s

Coats CFL Number mean: 0.000404218 max: 0.459249
deltaT = 0.00113059
Time = 0.0344255

diagonal:  Solving for Sb, Initial residual = 0, Final residual = 0, No Iterations 0
Saturation b:  Min(Sb) = -1.79295e-05 Max(Sb) = 0.757316
DICPCG:  Solving for p, Initial residual = 0.00346208, Final residual = 9.37929e-13, No Iterations 257
ExecutionTime = 6.9375 s  ClockTime = 7 s

Coats CFL Number mean: 0.000502551 max: 0.680001
deltaT = 0.00121434
Time = 0.0356399

diagonal:  Solving for Sb, Initial residual = 0, Final residual = 0, No Iterations 0
Saturation b:  Min(Sb) = -1.56648e-05 Max(Sb) = 0.759957
DICPCG:  Solving for p, Initial residual = 0.00333926, Final residual = 8.46143e-13, No Iterations 258
ExecutionTime = 7.0625 s  ClockTime = 8 s

Coats CFL Number mean: 0.000570286 max: 1.10658
deltaT = 0.000814685
Time = 0.0364545

diagonal:  Solving for Sb, Initial residual = 0, Final residual = 0, No Iterations 0
Saturation b:  Min(Sb) = 1.09323e-06 Max(Sb) = 0.761661
DICPCG:  Solving for p, Initial residual = 0.00227792, Final residual = 9.73534e-13, No Iterations 257
ExecutionTime = 7.23438 s  ClockTime = 8 s

Coats CFL Number mean: 0.000372079 max: 0.596486
deltaT = 0.000907792
Time = 0.0373623

diagonal:  Solving for Sb, Initial residual = 0, Final residual = 0, No Iterations 0
Saturation b:  Min(Sb) = 1.09342e-06 Max(Sb) = 0.763508
DICPCG:  Solving for p, Initial residual = 0.00273271, Final residual = 8.31316e-13, No Iterations 256
ExecutionTime = 7.32812 s  ClockTime = 8 s

Coats CFL Number mean: 0.000404784 max: 0.495475
deltaT = 0.00104396
Time = 0.0384063

diagonal:  Solving for Sb, Initial residual = 0, Final residual = 0, No Iterations 0
Saturation b:  Min(Sb) = -1.67405e-05 Max(Sb) = 0.765568
DICPCG:  Solving for p, Initial residual = 0.00314701, Final residual = 9.40138e-13, No Iterations 257
ExecutionTime = 7.42188 s  ClockTime = 8 s

Coats CFL Number mean: 0.000476091 max: 0.463986
deltaT = 0.00120772
Time = 0.039614

diagonal:  Solving for Sb, Initial residual = 0, Final residual = 0, No Iterations 0
Saturation b:  Min(Sb) = -1.64598e-05 Max(Sb) = 0.767882
DICPCG:  Solving for p, Initial residual = 0.00316269, Final residual = 9.50066e-13, No Iterations 257
ExecutionTime = 7.51562 s  ClockTime = 8 s

Coats CFL Number mean: 0.000609763 max: 1.10526
deltaT = 0.000816027
Time = 0.04043

diagonal:  Solving for Sb, Initial residual = 0, Final residual = 0, No Iterations 0
Saturation b:  Min(Sb) = 1.1e-06 Max(Sb) = 0.769398
DICPCG:  Solving for p, Initial residual = 0.00201191, Final residual = 9.82973e-13, No Iterations 257
ExecutionTime = 7.625 s  ClockTime = 8 s

Coats CFL Number mean: 0.000411177 max: 0.731884
deltaT = 0.000827361
Time = 0.0412574

diagonal:  Solving for Sb, Initial residual = 0, Final residual = 0, No Iterations 0
Saturation b:  Min(Sb) = 9.95994e-07 Max(Sb) = 0.770898
DICPCG:  Solving for p, Initial residual = 0.00229376, Final residual = 8.07493e-13, No Iterations 258
ExecutionTime = 7.84375 s  ClockTime = 8 s

Coats CFL Number mean: 0.000405196 max: 0.580586
deltaT = 0.000932422
Time = 0.0421898

diagonal:  Solving for Sb, Initial residual = 0, Final residual = 0, No Iterations 0
Saturation b:  Min(Sb) = 9.96876e-07 Max(Sb) = 0.772545
DICPCG:  Solving for p, Initial residual = 0.00278566, Final residual = 9.6702e-13, No Iterations 257
ExecutionTime = 8.04688 s  ClockTime = 9 s

Coats CFL Number mean: 0.000449471 max: 0.482039
deltaT = 0.00107056
Time = 0.0432604

diagonal:  Solving for Sb, Initial residual = 0, Final residual = 0, No Iterations 0
Saturation b:  Min(Sb) = -3.11252e-05 Max(Sb) = 0.774387
DICPCG:  Solving for p, Initial residual = 0.00312748, Final residual = 8.93605e-13, No Iterations 257
ExecutionTime = 8.125 s  ClockTime = 9 s

Coats CFL Number mean: 0.00054238 max: 0.497152
deltaT = 0.00120723
Time = 0.0444676

diagonal:  Solving for Sb, Initial residual = 0, Final residual = 0, No Iterations 0
Saturation b:  Min(Sb) = -3.07411e-05 Max(Sb) = 0.776413
DICPCG:  Solving for p, Initial residual = 0.00281206, Final residual = 8.71915e-13, No Iterations 258
ExecutionTime = 8.21875 s  ClockTime = 9 s

Coats CFL Number mean: 0.000660639 max: 1.16568
deltaT = 0.000771283
Time = 0.0452389

diagonal:  Solving for Sb, Initial residual = 0, Final residual = 0, No Iterations 0
Saturation b:  Min(Sb) = 1.1e-06 Max(Sb) = 0.777669
DICPCG:  Solving for p, Initial residual = 0.00181204, Final residual = 7.8417e-13, No Iterations 258
ExecutionTime = 8.29688 s  ClockTime = 9 s

Coats CFL Number mean: 0.000415708 max: 0.638573
deltaT = 0.000855642
Time = 0.0460945

diagonal:  Solving for Sb, Initial residual = 0, Final residual = 0, No Iterations 0
Saturation b:  Min(Sb) = 5.2736e-07 Max(Sb) = 0.779034
DICPCG:  Solving for p, Initial residual = 0.00232173, Final residual = 8.18453e-13, No Iterations 258
ExecutionTime = 8.48438 s  ClockTime = 9 s

Coats CFL Number mean: 0.000451979 max: 0.537177
deltaT = 0.000962598
Time = 0.0470571

diagonal:  Solving for Sb, Initial residual = 0, Final residual = 0, No Iterations 0
Saturation b:  Min(Sb) = 5.29152e-07 Max(Sb) = 0.780534
DICPCG:  Solving for p, Initial residual = 0.00275883, Final residual = 9.01723e-13, No Iterations 257
ExecutionTime = 8.5625 s  ClockTime = 9 s

Coats CFL Number mean: 0.000511454 max: 0.44419
deltaT = 0.00110298
Time = 0.0481601

diagonal:  Solving for Sb, Initial residual = 0, Final residual = 0, No Iterations 0
Saturation b:  Min(Sb) = -4.01889e-05 Max(Sb) = 0.782214
DICPCG:  Solving for p, Initial residual = 0.00292224, Final residual = 8.44199e-13, No Iterations 258
ExecutionTime = 8.65625 s  ClockTime = 9 s

Coats CFL Number mean: 0.00063447 max: 0.880946
deltaT = 0.000925712
Time = 0.0490858

diagonal:  Solving for Sb, Initial residual = 0, Final residual = 0, No Iterations 0
Saturation b:  Min(Sb) = -3.97498e-05 Max(Sb) = 0.783592
DICPCG:  Solving for p, Initial residual = 0.00221016, Final residual = 8.76822e-13, No Iterations 258
ExecutionTime = 8.73438 s  ClockTime = 9 s

Coats CFL Number mean: 0.000541654 max: 0.889063
deltaT = 0.000771427
Time = 0.0498572

diagonal:  Solving for Sb, Initial residual = 0, Final residual = 0, No Iterations 0
Saturation b:  Min(Sb) = 1.07374e-06 Max(Sb) = 0.784715
DICPCG:  Solving for p, Initial residual = 0.0019273, Final residual = 8.25122e-13, No Iterations 258
ExecutionTime = 8.85938 s  ClockTime = 9 s

Coats CFL Number mean: 0.000439721 max: 0.605013
deltaT = 0.00086453
Time = 0.0507218

diagonal:  Solving for Sb, Initial residual = 0, Final residual = 0, No Iterations 0
Saturation b:  Min(Sb) = 1.07377e-06 Max(Sb) = 0.785949
DICPCG:  Solving for p, Initial residual = 0.0024, Final residual = 7.70203e-13, No Iterations 258
ExecutionTime = 9.01562 s  ClockTime = 10 s

Coats CFL Number mean: 0.000482767 max: 0.509219
deltaT = 0.000985564
Time = 0.0517073

diagonal:  Solving for Sb, Initial residual = 0, Final residual = 0, No Iterations 0
Saturation b:  Min(Sb) = -2.52904e-05 Max(Sb) = 0.787327
DICPCG:  Solving for p, Initial residual = 0.00275884, Final residual = 8.34963e-13, No Iterations 258
ExecutionTime = 9.10938 s  ClockTime = 10 s

Coats CFL Number mean: 0.000563685 max: 0.425424
deltaT = 0.00114983
Time = 0.0528572

diagonal:  Solving for Sb, Initial residual = 0, Final residual = 0, No Iterations 0
Saturation b:  Min(Sb) = -2.52422e-05 Max(Sb) = 0.788904
DICPCG:  Solving for p, Initial residual = 0.00266496, Final residual = 9.83288e-13, No Iterations 257
ExecutionTime = 9.1875 s  ClockTime = 10 s

Coats CFL Number mean: 0.000717807 max: 1.16042
deltaT = 0.000736607
Time = 0.0535938

diagonal:  Solving for Sb, Initial residual = 0, Final residual = 0, No Iterations 0
Saturation b:  Min(Sb) = 1.09989e-06 Max(Sb) = 0.789892
DICPCG:  Solving for p, Initial residual = 0.00178301, Final residual = 7.98927e-13, No Iterations 258
ExecutionTime = 9.3125 s  ClockTime = 10 s

Coats CFL Number mean: 0.000455458 max: 0.689086
deltaT = 0.000800107
Time = 0.0543939

diagonal:  Solving for Sb, Initial residual = 0, Final residual = 0, No Iterations 0
Saturation b:  Min(Sb) = 9.41693e-07 Max(Sb) = 0.790946
DICPCG:  Solving for p, Initial residual = 0.00202367, Final residual = 8.34008e-13, No Iterations 258
ExecutionTime = 9.40625 s  ClockTime = 10 s

Coats CFL Number mean: 0.00048265 max: 0.584868
deltaT = 0.000894238
Time = 0.0552881

diagonal:  Solving for Sb, Initial residual = 0, Final residual = 0, No Iterations 0
Saturation b:  Min(Sb) = 9.41819e-07 Max(Sb) = 0.792103
DICPCG:  Solving for p, Initial residual = 0.00246481, Final residual = 8.92416e-13, No Iterations 258
ExecutionTime = 9.53125 s  ClockTime = 10 s

Coats CFL Number mean: 0.00053424 max: 0.484464
deltaT = 0.00101618
Time = 0.0563043

diagonal:  Solving for Sb, Initial residual = 0, Final residual = 0, No Iterations 0
Saturation b:  Min(Sb) = -4.87781e-05 Max(Sb) = 0.793393
DICPCG:  Solving for p, Initial residual = 0.0027216, Final residual = 9.27328e-13, No Iterations 258
ExecutionTime = 9.625 s  ClockTime = 10 s

Coats CFL Number mean: 0.000639699 max: 0.612246
deltaT = 0.0011204
Time = 0.0574247

diagonal:  Solving for Sb, Initial residual = 0, Final residual = 0, No Iterations 0
Saturation b:  Min(Sb) = -4.87014e-05 Max(Sb) = 0.794791
DICPCG:  Solving for p, Initial residual = 0.00244418, Final residual = 9.05529e-13, No Iterations 259
ExecutionTime = 9.73438 s  ClockTime = 10 s

Coats CFL Number mean: 0.000739685 max: 1.14465
deltaT = 0.000734057
Time = 0.0581588

diagonal:  Solving for Sb, Initial residual = 0, Final residual = 0, No Iterations 0
Saturation b:  Min(Sb) = 1.09201e-06 Max(Sb) = 0.795687
DICPCG:  Solving for p, Initial residual = 0.0017509, Final residual = 8.73343e-13, No Iterations 258
ExecutionTime = 9.875 s  ClockTime = 10 s

Coats CFL Number mean: 0.000474308 max: 0.62388
deltaT = 0.000820417
Time = 0.0589792

diagonal:  Solving for Sb, Initial residual = 0, Final residual = 0, No Iterations 0
Saturation b:  Min(Sb) = 1.09202e-06 Max(Sb) = 0.796672
DICPCG:  Solving for p, Initial residual = 0.00218576, Final residual = 9.76008e-13, No Iterations 258
ExecutionTime = 9.96875 s  ClockTime = 10 s

Coats CFL Number mean: 0.000519708 max: 0.52764
deltaT = 0.000932292
Time = 0.0599115

diagonal:  Solving for Sb, Initial residual = 0, Final residual = 0, No Iterations 0
Saturation b:  Min(Sb) = -2.28494e-05 Max(Sb) = 0.797772
DICPCG:  Solving for p, Initial residual = 0.00252119, Final residual = 8.71209e-13, No Iterations 259
ExecutionTime = 10.0938 s  ClockTime = 11 s

Coats CFL Number mean: 0.000601503 max: 0.441105
deltaT = 0.00108347
Time = 0.0609949

diagonal:  Solving for Sb, Initial residual = 0, Final residual = 0, No Iterations 0
Saturation b:  Min(Sb) = -2.28377e-05 Max(Sb) = 0.799031
DICPCG:  Solving for p, Initial residual = 0.00246806, Final residual = 8.27162e-13, No Iterations 260
ExecutionTime = 10.1719 s  ClockTime = 11 s

Coats CFL Number mean: 0.000759478 max: 1.12162
deltaT = 0.000722316
Time = 0.0617173

diagonal:  Solving for Sb, Initial residual = 0, Final residual = 0, No Iterations 0
Saturation b:  Min(Sb) = 1.09983e-06 Max(Sb) = 0.799855
DICPCG:  Solving for p, Initial residual = 0.00162773, Final residual = 8.99616e-13, No Iterations 258
ExecutionTime = 10.25 s  ClockTime = 11 s

Coats CFL Number mean: 0.00050546 max: 0.730245
deltaT = 0.000736207
Time = 0.0624535

diagonal:  Solving for Sb, Initial residual = 0, Final residual = 0, No Iterations 0
Saturation b:  Min(Sb) = 9.68053e-07 Max(Sb) = 0.800684
DICPCG:  Solving for p, Initial residual = 0.0018089, Final residual = 9.84402e-13, No Iterations 252
ExecutionTime = 10.3594 s  ClockTime = 11 s

Coats CFL Number mean: 0.000504491 max: 0.593366
deltaT = 0.000816229
Time = 0.0632697

diagonal:  Solving for Sb, Initial residual = 0, Final residual = 0, No Iterations 0
Saturation b:  Min(Sb) = 9.68077e-07 Max(Sb) = 0.801588
DICPCG:  Solving for p, Initial residual = 0.00218916, Final residual = 8.56134e-13, No Iterations 259
ExecutionTime = 10.4531 s  ClockTime = 11 s

Coats CFL Number mean: 0.000553248 max: 0.494607
deltaT = 0.000918258
Time = 0.0641879

diagonal:  Solving for Sb, Initial residual = 0, Final residual = 0, No Iterations 0
Saturation b:  Min(Sb) = -4.67921e-05 Max(Sb) = 0.802591
DICPCG:  Solving for p, Initial residual = 0.00241087, Final residual = 8.9639e-13, No Iterations 255
ExecutionTime = 10.5469 s  ClockTime = 11 s

Coats CFL Number mean: 0.000646597 max: 0.50211
deltaT = 0.0010533
Time = 0.0652412

diagonal:  Solving for Sb, Initial residual = 0, Final residual = 0, No Iterations 0
Saturation b:  Min(Sb) = -4.67751e-05 Max(Sb) = 0.803725
DICPCG:  Solving for p, Initial residual = 0.00215865, Final residual = 8.56409e-13, No Iterations 260
ExecutionTime = 10.6562 s  ClockTime = 11 s

Coats CFL Number mean: 0.000784791 max: 1.17851
deltaT = 0.000668438
Time = 0.0659097

diagonal:  Solving for Sb, Initial residual = 0, Final residual = 0, No Iterations 0
Saturation b:  Min(Sb) = -4.66316e-05 Max(Sb) = 0.804432
DICPCG:  Solving for p, Initial residual = 0.00156328, Final residual = 8.87738e-13, No Iterations 257
ExecutionTime = 10.875 s  ClockTime = 11 s

Coats CFL Number mean: 0.000487905 max: 0.63306
deltaT = 0.000741094
Time = 0.0666508

diagonal:  Solving for Sb, Initial residual = 0, Final residual = 0, No Iterations 0
Saturation b:  Min(Sb) = 3.36338e-07 Max(Sb) = 0.805205
DICPCG:  Solving for p, Initial residual = 0.00194331, Final residual = 9.28697e-13, No Iterations 256
ExecutionTime = 11.0156 s  ClockTime = 12 s

Coats CFL Number mean: 0.000529575 max: 0.544379
deltaT = 0.000833731
Time = 0.0674845

diagonal:  Solving for Sb, Initial residual = 0, Final residual = 0, No Iterations 0
Saturation b:  Min(Sb) = 3.3635e-07 Max(Sb) = 0.806063
DICPCG:  Solving for p, Initial residual = 0.00227999, Final residual = 8.69205e-13, No Iterations 258
ExecutionTime = 11.3438 s  ClockTime = 12 s

Coats CFL Number mean: 0.000598772 max: 0.459552
deltaT = 0.000956338
Time = 0.0684408

diagonal:  Solving for Sb, Initial residual = 0, Final residual = 0, No Iterations 0
Saturation b:  Min(Sb) = -9.3422e-05 Max(Sb) = 0.807035
DICPCG:  Solving for p, Initial residual = 0.00230547, Final residual = 7.53513e-13, No Iterations 260
ExecutionTime = 11.4219 s  ClockTime = 12 s

Coats CFL Number mean: 0.000735715 max: 0.932908
deltaT = 0.000751408
Time = 0.0691923

diagonal:  Solving for Sb, Initial residual = 0, Final residual = 0, No Iterations 0
Saturation b:  Min(Sb) = -9.34073e-05 Max(Sb) = 0.807788
DICPCG:  Solving for p, Initial residual = 0.00164488, Final residual = 9.71167e-13, No Iterations 255
ExecutionTime = 11.5312 s  ClockTime = 12 s

Coats CFL Number mean: 0.00058626 max: 0.854253
deltaT = 0.000655484
Time = 0.0698477

diagonal:  Solving for Sb, Initial residual = 0, Final residual = 0, No Iterations 0
Saturation b:  Min(Sb) = 8.45719e-07 Max(Sb) = 0.808436
DICPCG:  Solving for p, Initial residual = 0.00174125, Final residual = 7.88521e-13, No Iterations 259
ExecutionTime = 11.6562 s  ClockTime = 12 s

Coats CFL Number mean: 0.000502058 max: 0.614331
deltaT = 0.000735421
Time = 0.0705832

diagonal:  Solving for Sb, Initial residual = 0, Final residual = 0, No Iterations 0
Saturation b:  Min(Sb) = 8.45719e-07 Max(Sb) = 0.809155
DICPCG:  Solving for p, Initial residual = 0.00217506, Final residual = 9.46815e-13, No Iterations 253
ExecutionTime = 11.8125 s  ClockTime = 12 s

Coats CFL Number mean: 0.000569498 max: 0.518399
deltaT = 0.000840481
Time = 0.0714236

diagonal:  Solving for Sb, Initial residual = 0, Final residual = 0, No Iterations 0
Saturation b:  Min(Sb) = -0.000127526 Max(Sb) = 0.809968
DICPCG:  Solving for p, Initial residual = 0.00209089, Final residual = 8.3225e-13, No Iterations 260
ExecutionTime = 11.9062 s  ClockTime = 12 s

Coats CFL Number mean: 0.000721894 max: 1.2974
deltaT = 0.000484345
Time = 0.071908

diagonal:  Solving for Sb, Initial residual = 0, Final residual = 0, No Iterations 0
Saturation b:  Min(Sb) = -0.000127525 Max(Sb) = 0.810431
DICPCG:  Solving for p, Initial residual = 0.00111684, Final residual = 9.28468e-13, No Iterations 258
ExecutionTime = 12.0312 s  ClockTime = 13 s

Coats CFL Number mean: 0.000417425 max: 0.785363
deltaT = 0.000460525
Time = 0.0723685

diagonal:  Solving for Sb, Initial residual = 0, Final residual = 0, No Iterations 0
Saturation b:  Min(Sb) = -0.000127518 Max(Sb) = 0.810867
DICPCG:  Solving for p, Initial residual = 0.0013346, Final residual = 9.23319e-13, No Iterations 258
ExecutionTime = 12.1406 s  ClockTime = 13 s

Coats CFL Number mean: 0.000387345 max: 0.637333
deltaT = 0.000511694
Time = 0.0728802

diagonal:  Solving for Sb, Initial residual = 0, Final residual = 0, No Iterations 0
Saturation b:  Min(Sb) = -0.000127486 Max(Sb) = 0.811348
DICPCG:  Solving for p, Initial residual = 0.00163492, Final residual = 7.73586e-13, No Iterations 259
ExecutionTime = 12.3281 s  ClockTime = 13 s

Coats CFL Number mean: 0.000422244 max: 0.565964
deltaT = 0.000577017
Time = 0.0734572

diagonal:  Solving for Sb, Initial residual = 0, Final residual = 0, No Iterations 0
Saturation b:  Min(Sb) = -3.50826e-05 Max(Sb) = 0.811886
DICPCG:  Solving for p, Initial residual = 0.00180132, Final residual = 9.96693e-13, No Iterations 252
ExecutionTime = 12.4375 s  ClockTime = 13 s

Coats CFL Number mean: 0.000489767 max: 0.498953
deltaT = 0.00066357
Time = 0.0741208

diagonal:  Solving for Sb, Initial residual = 0, Final residual = 0, No Iterations 0
Saturation b:  Min(Sb) = -3.50826e-05 Max(Sb) = 0.8125
DICPCG:  Solving for p, Initial residual = 0.00152453, Final residual = 7.68102e-13, No Iterations 260
ExecutionTime = 12.625 s  ClockTime = 13 s

Coats CFL Number mean: 0.000605038 max: 1.07568
deltaT = 0.000462129
Time = 0.0745829

diagonal:  Solving for Sb, Initial residual = 0, Final residual = 0, No Iterations 0
Saturation b:  Min(Sb) = -8.89489e-05 Max(Sb) = 0.812924
DICPCG:  Solving for p, Initial residual = 0.00108954, Final residual = 9.73564e-13, No Iterations 258
ExecutionTime = 12.7656 s  ClockTime = 13 s

Coats CFL Number mean: 0.000417983 max: 0.738292
deltaT = 0.000462129
Time = 0.075045

diagonal:  Solving for Sb, Initial residual = 0, Final residual = 0, No Iterations 0
Saturation b:  Min(Sb) = -8.89485e-05 Max(Sb) = 0.813345
DICPCG:  Solving for p, Initial residual = 0.0013894, Final residual = 9.8504e-13, No Iterations 258
ExecutionTime = 12.875 s  ClockTime = 13 s

Coats CFL Number mean: 0.000406945 max: 0.617433
deltaT = 0.000509285
Time = 0.0755543

diagonal:  Solving for Sb, Initial residual = 0, Final residual = 0, No Iterations 0
Saturation b:  Min(Sb) = 8.40168e-07 Max(Sb) = 0.813805
DICPCG:  Solving for p, Initial residual = 0.00165545, Final residual = 8.92637e-13, No Iterations 259
ExecutionTime = 12.9688 s  ClockTime = 13 s

Coats CFL Number mean: 0.000441313 max: 0.540572
deltaT = 0.000568504
Time = 0.0761228

diagonal:  Solving for Sb, Initial residual = 0, Final residual = 0, No Iterations 0
Saturation b:  Min(Sb) = -4.51415e-05 Max(Sb) = 0.814314
DICPCG:  Solving for p, Initial residual = 0.00175926, Final residual = 8.4656e-13, No Iterations 259
ExecutionTime = 13.0781 s  ClockTime = 14 s

Coats CFL Number mean: 0.000510082 max: 0.472406
deltaT = 0.000645329
Time = 0.0767682

diagonal:  Solving for Sb, Initial residual = 0, Final residual = 0, No Iterations 0
Saturation b:  Min(Sb) = -4.51415e-05 Max(Sb) = 0.814889
DICPCG:  Solving for p, Initial residual = 0.00137557, Final residual = 7.82168e-13, No Iterations 260
ExecutionTime = 13.1719 s  ClockTime = 14 s

Coats CFL Number mean: 0.000614242 max: 1.06756
deltaT = 0.000446766
Time = 0.0772149

diagonal:  Solving for Sb, Initial residual = 0, Final residual = 0, No Iterations 0
Saturation b:  Min(Sb) = -4.51414e-05 Max(Sb) = 0.815283
DICPCG:  Solving for p, Initial residual = 0.00111282, Final residual = 9.94301e-13, No Iterations 258
ExecutionTime = 13.2812 s  ClockTime = 14 s

Coats CFL Number mean: 0.000419798 max: 0.701223
deltaT = 0.000474689
Time = 0.0776896

diagonal:  Solving for Sb, Initial residual = 0, Final residual = 0, No Iterations 0
Saturation b:  Min(Sb) = -4.51405e-05 Max(Sb) = 0.815699
DICPCG:  Solving for p, Initial residual = 0.00144711, Final residual = 7.72338e-13, No Iterations 259
ExecutionTime = 13.4219 s  ClockTime = 14 s

Coats CFL Number mean: 0.000434123 max: 0.612226
deltaT = 0.0005312
Time = 0.0782208

diagonal:  Solving for Sb, Initial residual = 0, Final residual = 0, No Iterations 0
Saturation b:  Min(Sb) = -7.59691e-06 Max(Sb) = 0.81616
DICPCG:  Solving for p, Initial residual = 0.00171261, Final residual = 7.25088e-13, No Iterations 260
ExecutionTime = 13.5312 s  ClockTime = 14 s

Coats CFL Number mean: 0.00048018 max: 0.537288
deltaT = 0.000604977
Time = 0.0788258

diagonal:  Solving for Sb, Initial residual = 0, Final residual = 0, No Iterations 0
Saturation b:  Min(Sb) = -7.59691e-06 Max(Sb) = 0.816682
DICPCG:  Solving for p, Initial residual = 0.001791, Final residual = 9.41046e-13, No Iterations 257
ExecutionTime = 13.7969 s  ClockTime = 14 s

Coats CFL Number mean: 0.000573188 max: 0.619982
deltaT = 0.000661694
Time = 0.0794875

diagonal:  Solving for Sb, Initial residual = 0, Final residual = 0, No Iterations 0
Saturation b:  Min(Sb) = -0.000136276 Max(Sb) = 0.817249
DICPCG:  Solving for p, Initial residual = 0.00137261, Final residual = 8.0211e-13, No Iterations 260
ExecutionTime = 13.9062 s  ClockTime = 14 s

Coats CFL Number mean: 0.000653096 max: 1.10189
deltaT = 0.000445924
Time = 0.0799334

diagonal:  Solving for Sb, Initial residual = 0, Final residual = 0, No Iterations 0
Saturation b:  Min(Sb) = -0.000136276 Max(Sb) = 0.817628
DICPCG:  Solving for p, Initial residual = 0.00119121, Final residual = 7.71899e-13, No Iterations 259
ExecutionTime = 14.0469 s  ClockTime = 15 s

Coats CFL Number mean: 0.000431315 max: 0.658809
deltaT = 0.000489429
Time = 0.0804228

diagonal:  Solving for Sb, Initial residual = 0, Final residual = 0, No Iterations 0
Saturation b:  Min(Sb) = -0.000136274 Max(Sb) = 0.81804
DICPCG:  Solving for p, Initial residual = 0.00151074, Final residual = 9.10485e-13, No Iterations 259
ExecutionTime = 14.1875 s  ClockTime = 15 s

Coats CFL Number mean: 0.000461681 max: 0.580672
deltaT = 0.00054381
Time = 0.0809667

diagonal:  Solving for Sb, Initial residual = 0, Final residual = 0, No Iterations 0
Saturation b:  Min(Sb) = -1.57242e-05 Max(Sb) = 0.818495
DICPCG:  Solving for p, Initial residual = 0.00171944, Final residual = 8.19359e-13, No Iterations 260
ExecutionTime = 14.3125 s  ClockTime = 15 s

Coats CFL Number mean: 0.0005134 max: 0.504182
deltaT = 0.000613979
Time = 0.0815806

diagonal:  Solving for Sb, Initial residual = 0, Final residual = 0, No Iterations 0
Saturation b:  Min(Sb) = -1.57242e-05 Max(Sb) = 0.819005
DICPCG:  Solving for p, Initial residual = 0.00166155, Final residual = 9.94186e-13, No Iterations 256
ExecutionTime = 14.4219 s  ClockTime = 15 s

Coats CFL Number mean: 0.000614835 max: 0.804756
deltaT = 0.000558163
Time = 0.0821388

diagonal:  Solving for Sb, Initial residual = 0, Final residual = 0, No Iterations 0
Saturation b:  Min(Sb) = -0.000106736 Max(Sb) = 0.819466
DICPCG:  Solving for p, Initial residual = 0.00118778, Final residual = 7.26918e-13, No Iterations 260
ExecutionTime = 14.5312 s  ClockTime = 15 s

Coats CFL Number mean: 0.000569171 max: 0.920799
deltaT = 0.00044653
Time = 0.0825853

diagonal:  Solving for Sb, Initial residual = 0, Final residual = 0, No Iterations 0
Saturation b:  Min(Sb) = -0.000106735 Max(Sb) = 0.819831
DICPCG:  Solving for p, Initial residual = 0.00122922, Final residual = 8.21899e-13, No Iterations 259
ExecutionTime = 14.6875 s  ClockTime = 15 s

Coats CFL Number mean: 0.000445621 max: 0.641283
deltaT = 0.000497562
Time = 0.0830829

diagonal:  Solving for Sb, Initial residual = 0, Final residual = 0, No Iterations 0
Saturation b:  Min(Sb) = 1.05741e-06 Max(Sb) = 0.820236
DICPCG:  Solving for p, Initial residual = 0.0015544, Final residual = 7.58675e-13, No Iterations 260
ExecutionTime = 14.8281 s  ClockTime = 15 s

Coats CFL Number mean: 0.000485363 max: 0.570717
deltaT = 0.000545713
Time = 0.0836286

diagonal:  Solving for Sb, Initial residual = 0, Final residual = 0, No Iterations 0
Saturation b:  Min(Sb) = -2.21373e-05 Max(Sb) = 0.820676
DICPCG:  Solving for p, Initial residual = 0.0017258, Final residual = 8.64207e-13, No Iterations 260
ExecutionTime = 14.9219 s  ClockTime = 15 s

Coats CFL Number mean: 0.000535992 max: 0.488898
deltaT = 0.000629669
Time = 0.0842583

diagonal:  Solving for Sb, Initial residual = 0, Final residual = 0, No Iterations 0
Saturation b:  Min(Sb) = -2.21373e-05 Max(Sb) = 0.821181
DICPCG:  Solving for p, Initial residual = 0.00162911, Final residual = 9.51533e-13, No Iterations 260
ExecutionTime = 15.0156 s  ClockTime = 16 s

Coats CFL Number mean: 0.000656598 max: 0.900521
deltaT = 0.000507798
Time = 0.0847661

diagonal:  Solving for Sb, Initial residual = 0, Final residual = 0, No Iterations 0
Saturation b:  Min(Sb) = -9.27064e-05 Max(Sb) = 0.821585
DICPCG:  Solving for p, Initial residual = 0.00111288, Final residual = 7.26168e-13, No Iterations 260
ExecutionTime = 15.125 s  ClockTime = 16 s

Coats CFL Number mean: 0.000534043 max: 0.830067
deltaT = 0.000448057
Time = 0.0852141

diagonal:  Solving for Sb, Initial residual = 0, Final residual = 0, No Iterations 0
Saturation b:  Min(Sb) = -9.27059e-05 Max(Sb) = 0.82194
DICPCG:  Solving for p, Initial residual = 0.00124513, Final residual = 8.81852e-13, No Iterations 259
ExecutionTime = 15.4062 s  ClockTime = 16 s

Coats CFL Number mean: 0.000461277 max: 0.631913
deltaT = 0.000492863
Time = 0.085707

diagonal:  Solving for Sb, Initial residual = 0, Final residual = 0, No Iterations 0
Saturation b:  Min(Sb) = 1.02813e-06 Max(Sb) = 0.822326
DICPCG:  Solving for p, Initial residual = 0.00154209, Final residual = 8.64182e-13, No Iterations 260
ExecutionTime = 15.5312 s  ClockTime = 16 s

Coats CFL Number mean: 0.00049721 max: 0.55599
deltaT = 0.000549731
Time = 0.0862567

diagonal:  Solving for Sb, Initial residual = 0, Final residual = 0, No Iterations 0
Saturation b:  Min(Sb) = -2.5391e-05 Max(Sb) = 0.822755
DICPCG:  Solving for p, Initial residual = 0.00172683, Final residual = 9.49964e-13, No Iterations 259
ExecutionTime = 15.6406 s  ClockTime = 16 s

Coats CFL Number mean: 0.000560115 max: 0.483708
deltaT = 0.000624695
Time = 0.0868814

diagonal:  Solving for Sb, Initial residual = 0, Final residual = 0, No Iterations 0
Saturation b:  Min(Sb) = -2.5391e-05 Max(Sb) = 0.823239
DICPCG:  Solving for p, Initial residual = 0.00157981, Final residual = 8.84125e-13, No Iterations 255
ExecutionTime = 15.7812 s  ClockTime = 16 s

Coats CFL Number mean: 0.000674685 max: 0.906249
deltaT = 0.000504561
Time = 0.087386

diagonal:  Solving for Sb, Initial residual = 0, Final residual = 0, No Iterations 0
Saturation b:  Min(Sb) = -9.22252e-05 Max(Sb) = 0.823627
DICPCG:  Solving for p, Initial residual = 0.00110179, Final residual = 7.82742e-13, No Iterations 260
ExecutionTime = 15.875 s  ClockTime = 16 s

Coats CFL Number mean: 0.000548771 max: 0.818023
deltaT = 0.000450501
Time = 0.0878365

diagonal:  Solving for Sb, Initial residual = 0, Final residual = 0, No Iterations 0
Saturation b:  Min(Sb) = -9.22246e-05 Max(Sb) = 0.823972
DICPCG:  Solving for p, Initial residual = 0.00124512, Final residual = 9.4729e-13, No Iterations 259
ExecutionTime = 15.9844 s  ClockTime = 17 s

Coats CFL Number mean: 0.000480351 max: 0.62692
deltaT = 0.000486541
Time = 0.088323

diagonal:  Solving for Sb, Initial residual = 0, Final residual = 0, No Iterations 0
Saturation b:  Min(Sb) = 1.01313e-06 Max(Sb) = 0.824341
DICPCG:  Solving for p, Initial residual = 0.00150396, Final residual = 9.21428e-13, No Iterations 260
ExecutionTime = 16.0938 s  ClockTime = 17 s

Coats CFL Number mean: 0.000509725 max: 0.543304
deltaT = 0.000530772
Time = 0.0888538

diagonal:  Solving for Sb, Initial residual = 0, Final residual = 0, No Iterations 0
Saturation b:  Min(Sb) = -2.55455e-05 Max(Sb) = 0.824741
DICPCG:  Solving for p, Initial residual = 0.0016404, Final residual = 8.61149e-13, No Iterations 261
ExecutionTime = 16.2188 s  ClockTime = 17 s

Coats CFL Number mean: 0.000561746 max: 0.466802
deltaT = 0.000586643
Time = 0.0894404

diagonal:  Solving for Sb, Initial residual = 0, Final residual = 0, No Iterations 0
Saturation b:  Min(Sb) = -2.55455e-05 Max(Sb) = 0.825181
DICPCG:  Solving for p, Initial residual = 0.00149119, Final residual = 9.17883e-13, No Iterations 261
ExecutionTime = 16.3594 s  ClockTime = 17 s

Coats CFL Number mean: 0.000654969 max: 0.806368
deltaT = 0.000527978
Time = 0.0899684

diagonal:  Solving for Sb, Initial residual = 0, Final residual = 0, No Iterations 0
Saturation b:  Min(Sb) = -0.000105148 Max(Sb) = 0.825574
DICPCG:  Solving for p, Initial residual = 0.0011204, Final residual = 9.22761e-13, No Iterations 260
ExecutionTime = 16.4844 s  ClockTime = 17 s

Coats CFL Number mean: 0.000596785 max: 0.855947
deltaT = 0.000455981
Time = 0.0904244

diagonal:  Solving for Sb, Initial residual = 0, Final residual = 0, No Iterations 0
Saturation b:  Min(Sb) = -0.000105147 Max(Sb) = 0.825912
DICPCG:  Solving for p, Initial residual = 0.00123319, Final residual = 7.7226e-13, No Iterations 260
ExecutionTime = 16.5938 s  ClockTime = 17 s

Coats CFL Number mean: 0.000506091 max: 0.638389
deltaT = 0.000503979
Time = 0.0909284

diagonal:  Solving for Sb, Initial residual = 0, Final residual = 0, No Iterations 0
Saturation b:  Min(Sb) = 1.03503e-06 Max(Sb) = 0.826282
DICPCG:  Solving for p, Initial residual = 0.0015482, Final residual = 9.7606e-13, No Iterations 260
ExecutionTime = 16.7188 s  ClockTime = 17 s

Coats CFL Number mean: 0.000549453 max: 0.561737
deltaT = 0.000566977
Time = 0.0914953

diagonal:  Solving for Sb, Initial residual = 0, Final residual = 0, No Iterations 0
Saturation b:  Min(Sb) = -2.59497e-05 Max(Sb) = 0.826696
DICPCG:  Solving for p, Initial residual = 0.0017541, Final residual = 9.58076e-13, No Iterations 261
ExecutionTime = 16.8438 s  ClockTime = 17 s

Coats CFL Number mean: 0.00062452 max: 0.489063
deltaT = 0.000654204
Time = 0.0921496

diagonal:  Solving for Sb, Initial residual = 0, Final residual = 0, No Iterations 0
Saturation b:  Min(Sb) = -2.59497e-05 Max(Sb) = 0.827171
DICPCG:  Solving for p, Initial residual = 0.00161495, Final residual = 7.6962e-13, No Iterations 262
ExecutionTime = 16.9844 s  ClockTime = 18 s

Coats CFL Number mean: 0.00076188 max: 0.961299
deltaT = 0.000490653
Time = 0.0926402

diagonal:  Solving for Sb, Initial residual = 0, Final residual = 0, No Iterations 0
Saturation b:  Min(Sb) = -8.3664e-05 Max(Sb) = 0.827524
DICPCG:  Solving for p, Initial residual = 0.00107787, Final residual = 9.20744e-13, No Iterations 260
ExecutionTime = 17.1406 s  ClockTime = 18 s

Coats CFL Number mean: 0.000573871 max: 0.785754
deltaT = 0.000459987
Time = 0.0931002

diagonal:  Solving for Sb, Initial residual = 0, Final residual = 0, No Iterations 0
Saturation b:  Min(Sb) = -8.36632e-05 Max(Sb) = 0.827854
DICPCG:  Solving for p, Initial residual = 0.00127354, Final residual = 8.30786e-13, No Iterations 260
ExecutionTime = 17.2812 s  ClockTime = 18 s

Coats CFL Number mean: 0.000527863 max: 0.627749
deltaT = 0.000492843
Time = 0.093593

diagonal:  Solving for Sb, Initial residual = 0, Final residual = 0, No Iterations 0
Saturation b:  Min(Sb) = 1.00266e-06 Max(Sb) = 0.828204
DICPCG:  Solving for p, Initial residual = 0.00152982, Final residual = 9.19466e-13, No Iterations 260
ExecutionTime = 17.4062 s  ClockTime = 18 s

Coats CFL Number mean: 0.000556378 max: 0.537869
deltaT = 0.000533914
Time = 0.0941269

diagonal:  Solving for Sb, Initial residual = 0, Final residual = 0, No Iterations 0
Saturation b:  Min(Sb) = -2.73478e-05 Max(Sb) = 0.828582
DICPCG:  Solving for p, Initial residual = 0.00165924, Final residual = 8.36977e-13, No Iterations 261
ExecutionTime = 17.5312 s  ClockTime = 18 s

Coats CFL Number mean: 0.000608567 max: 0.45865
deltaT = 0.000587305
Time = 0.0947143

diagonal:  Solving for Sb, Initial residual = 0, Final residual = 0, No Iterations 0
Saturation b:  Min(Sb) = -2.73478e-05 Max(Sb) = 0.828994
DICPCG:  Solving for p, Initial residual = 0.00149713, Final residual = 9.44412e-13, No Iterations 261
ExecutionTime = 17.6406 s  ClockTime = 18 s

Coats CFL Number mean: 0.00070245 max: 0.805285
deltaT = 0.000528575
Time = 0.0952428

diagonal:  Solving for Sb, Initial residual = 0, Final residual = 0, No Iterations 0
Saturation b:  Min(Sb) = -0.000103435 Max(Sb) = 0.829364
DICPCG:  Solving for p, Initial residual = 0.0011363, Final residual = 8.27065e-13, No Iterations 261
ExecutionTime = 17.75 s  ClockTime = 18 s

Coats CFL Number mean: 0.000638475 max: 0.847368
deltaT = 0.00043247
Time = 0.0956753

diagonal:  Solving for Sb, Initial residual = 0, Final residual = 0, No Iterations 0
Saturation b:  Min(Sb) = -0.000103434 Max(Sb) = 0.829664
DICPCG:  Solving for p, Initial residual = 0.00116784, Final residual = 8.73903e-13, No Iterations 260
ExecutionTime = 17.875 s  ClockTime = 19 s

Coats CFL Number mean: 0.000513935 max: 0.605028
deltaT = 0.000480522
Time = 0.0961558

diagonal:  Solving for Sb, Initial residual = 0, Final residual = 0, No Iterations 0
Saturation b:  Min(Sb) = 1.03544e-06 Max(Sb) = 0.829996
DICPCG:  Solving for p, Initial residual = 0.00146495, Final residual = 9.60591e-13, No Iterations 260
ExecutionTime = 18 s  ClockTime = 19 s

Coats CFL Number mean: 0.000561476 max: 0.542587
deltaT = 0.000480522
Time = 0.0966363

diagonal:  Solving for Sb, Initial residual = 0, Final residual = 0, No Iterations 0
Saturation b:  Min(Sb) = -1.8583e-05 Max(Sb) = 0.830325
DICPCG:  Solving for p, Initial residual = 0.00150217, Final residual = 7.96546e-13, No Iterations 261
ExecutionTime = 18.1562 s  ClockTime = 19 s

Coats CFL Number mean: 0.000562547 max: 0.437344
deltaT = 0.000560609
Time = 0.097197

diagonal:  Solving for Sb, Initial residual = 0, Final residual = 0, No Iterations 0
Saturation b:  Min(Sb) = -1.8583e-05 Max(Sb) = 0.830708
DICPCG:  Solving for p, Initial residual = 0.00154297, Final residual = 7.81122e-13, No Iterations 262
ExecutionTime = 18.2812 s  ClockTime = 19 s

Coats CFL Number mean: 0.000682989 max: 0.629374
deltaT = 0.000560609
Time = 0.0977576

diagonal:  Solving for Sb, Initial residual = 0, Final residual = 0, No Iterations 0
Saturation b:  Min(Sb) = -0.00012557 Max(Sb) = 0.831088
DICPCG:  Solving for p, Initial residual = 0.00115333, Final residual = 9.35529e-13, No Iterations 261
ExecutionTime = 18.4219 s  ClockTime = 19 s

Coats CFL Number mean: 0.000700595 max: 0.90204
deltaT = 0.000448488
Time = 0.098206

diagonal:  Solving for Sb, Initial residual = 0, Final residual = 0, No Iterations 0
Saturation b:  Min(Sb) = -0.00012557 Max(Sb) = 0.831391
DICPCG:  Solving for p, Initial residual = 0.00110487, Final residual = 9.81238e-13, No Iterations 260
ExecutionTime = 18.5469 s  ClockTime = 19 s

Coats CFL Number mean: 0.000553729 max: 0.655041
deltaT = 0.000448488
Time = 0.0986545

diagonal:  Solving for Sb, Initial residual = 0, Final residual = 0, No Iterations 0
Saturation b:  Min(Sb) = -1.00719e-06 Max(Sb) = 0.831691
DICPCG:  Solving for p, Initial residual = 0.00131208, Final residual = 8.60007e-13, No Iterations 260
ExecutionTime = 18.6719 s  ClockTime = 19 s

Coats CFL Number mean: 0.000544772 max: 0.54207
deltaT = 0.000448488
Time = 0.099103

diagonal:  Solving for Sb, Initial residual = 0, Final residual = 0, No Iterations 0
Saturation b:  Min(Sb) = -8.95195e-06 Max(Sb) = 0.83199
DICPCG:  Solving for p, Initial residual = 0.00138581, Final residual = 8.37392e-13, No Iterations 259
ExecutionTime = 18.8281 s  ClockTime = 19 s

Coats CFL Number mean: 0.000541689 max: 0.443121
deltaT = 0.000448488
Time = 0.0995515

diagonal:  Solving for Sb, Initial residual = 0, Final residual = 0, No Iterations 0
Saturation b:  Min(Sb) = -8.95195e-06 Max(Sb) = 0.832287
DICPCG:  Solving for p, Initial residual = 0.0013377, Final residual = 7.31259e-13, No Iterations 262
ExecutionTime = 18.9688 s  ClockTime = 20 s

Coats CFL Number mean: 0.000551496 max: 0.365328
deltaT = 0.000448488
Time = 0.1

diagonal:  Solving for Sb, Initial residual = 0, Final residual = 0, No Iterations 0
Saturation b:  Min(Sb) = -9.8602e-05 Max(Sb) = 0.832584
DICPCG:  Solving for p, Initial residual = 0.00106867, Final residual = 9.41797e-13, No Iterations 261
ExecutionTime = 19.1875 s  ClockTime = 20 s

Coats CFL Number mean: 0.000571415 max: 0.586913
deltaT = 0.000505051
Time = 0.100505

diagonal:  Solving for Sb, Initial residual = 0, Final residual = 0, No Iterations 0
Saturation b:  Min(Sb) = -9.8602e-05 Max(Sb) = 0.832916
DICPCG:  Solving for p, Initial residual = 0.00104639, Final residual = 8.74498e-13, No Iterations 261
ExecutionTime = 19.3125 s  ClockTime = 20 s

Coats CFL Number mean: 0.000652248 max: 0.806358
deltaT = 0.000469316
Time = 0.100974

diagonal:  Solving for Sb, Initial residual = 0, Final residual = 0, No Iterations 0
Saturation b:  Min(Sb) = -9.86011e-05 Max(Sb) = 0.833222
DICPCG:  Solving for p, Initial residual = 0.00119194, Final residual = 8.11679e-13, No Iterations 261
ExecutionTime = 19.4531 s  ClockTime = 20 s

Coats CFL Number mean: 0.000597372 max: 0.657457
deltaT = 0.000521188
Time = 0.101496

diagonal:  Solving for Sb, Initial residual = 0, Final residual = 0, No Iterations 0
Saturation b:  Min(Sb) = -9.597e-07 Max(Sb) = 0.833561
DICPCG:  Solving for p, Initial residual = 0.00154538, Final residual = 9.39397e-13, No Iterations 261
ExecutionTime = 19.5781 s  ClockTime = 20 s

Coats CFL Number mean: 0.000652395 max: 0.578742
deltaT = 0.000586336
Time = 0.102082

diagonal:  Solving for Sb, Initial residual = 0, Final residual = 0, No Iterations 0
Saturation b:  Min(Sb) = -9.597e-07 Max(Sb) = 0.833939
DICPCG:  Solving for p, Initial residual = 0.00178633, Final residual = 9.98433e-13, No Iterations 262
ExecutionTime = 19.6875 s  ClockTime = 20 s

Coats CFL Number mean: 0.000738016 max: 0.498949
deltaT = 0.000670672
Time = 0.102753

diagonal:  Solving for Sb, Initial residual = 0, Final residual = 0, No Iterations 0
Saturation b:  Min(Sb) = -0.000114606 Max(Sb) = 0.834369
DICPCG:  Solving for p, Initial residual = 0.00164886, Final residual = 9.47033e-13, No Iterations 263
ExecutionTime = 19.8125 s  ClockTime = 21 s

Coats CFL Number mean: 0.000885087 max: 0.93748
deltaT = 0.000534327
Time = 0.103287

diagonal:  Solving for Sb, Initial residual = 0, Final residual = 0, No Iterations 0
Saturation b:  Min(Sb) = -0.000114606 Max(Sb) = 0.83471
DICPCG:  Solving for p, Initial residual = 0.0011412, Final residual = 9.94221e-13, No Iterations 261
ExecutionTime = 19.9531 s  ClockTime = 21 s

Coats CFL Number mean: 0.000708908 max: 0.836142
deltaT = 0.000478778
Time = 0.103766

diagonal:  Solving for Sb, Initial residual = 0, Final residual = 0, No Iterations 0
Saturation b:  Min(Sb) = -0.000114605 Max(Sb) = 0.835013
DICPCG:  Solving for p, Initial residual = 0.00129165, Final residual = 9.77411e-13, No Iterations 260
ExecutionTime = 20.0625 s  ClockTime = 21 s

Coats CFL Number mean: 0.00062433 max: 0.632896
deltaT = 0.000534635
Time = 0.1043

diagonal:  Solving for Sb, Initial residual = 0, Final residual = 0, No Iterations 0
Saturation b:  Min(Sb) = 1.01211e-06 Max(Sb) = 0.83535
DICPCG:  Solving for p, Initial residual = 0.00161843, Final residual = 8.47333e-13, No Iterations 262
ExecutionTime = 20.2031 s  ClockTime = 21 s

Coats CFL Number mean: 0.000686889 max: 0.553886
deltaT = 0.000605694
Time = 0.104906

diagonal:  Solving for Sb, Initial residual = 0, Final residual = 0, No Iterations 0
Saturation b:  Min(Sb) = -3.45165e-05 Max(Sb) = 0.835728
DICPCG:  Solving for p, Initial residual = 0.00181513, Final residual = 8.13735e-13, No Iterations 264
ExecutionTime = 20.3281 s  ClockTime = 21 s

Coats CFL Number mean: 0.000788727 max: 0.479111
deltaT = 0.000699221
Time = 0.105605

diagonal:  Solving for Sb, Initial residual = 0, Final residual = 0, No Iterations 0
Saturation b:  Min(Sb) = -3.45165e-05 Max(Sb) = 0.836163
DICPCG:  Solving for p, Initial residual = 0.00156212, Final residual = 9.80318e-13, No Iterations 263
ExecutionTime = 20.4531 s  ClockTime = 21 s

Coats CFL Number mean: 0.000952818 max: 1.06773
deltaT = 0.000489092
Time = 0.106094

diagonal:  Solving for Sb, Initial residual = 0, Final residual = 0, No Iterations 0
Saturation b:  Min(Sb) = -5.33428e-05 Max(Sb) = 0.836466
DICPCG:  Solving for p, Initial residual = 0.00108212, Final residual = 8.26205e-13, No Iterations 262
ExecutionTime = 20.5781 s  ClockTime = 21 s

Coats CFL Number mean: 0.000663578 max: 0.741486
deltaT = 0.00049424
Time = 0.106589

diagonal:  Solving for Sb, Initial residual = 0, Final residual = 0, No Iterations 0
Saturation b:  Min(Sb) = -5.33409e-05 Max(Sb) = 0.836769
DICPCG:  Solving for p, Initial residual = 0.00138498, Final residual = 7.92046e-13, No Iterations 262
ExecutionTime = 20.6875 s  ClockTime = 21 s

Coats CFL Number mean: 0.000658593 max: 0.613791
deltaT = 0.00055273
Time = 0.107141

diagonal:  Solving for Sb, Initial residual = 0, Final residual = 0, No Iterations 0
Saturation b:  Min(Sb) = 8.71334e-07 Max(Sb) = 0.837106
DICPCG:  Solving for p, Initial residual = 0.00168609, Final residual = 8.99873e-13, No Iterations 262
ExecutionTime = 20.8125 s  ClockTime = 22 s

Coats CFL Number mean: 0.000728821 max: 0.532265
deltaT = 0.000627424
Time = 0.107769

diagonal:  Solving for Sb, Initial residual = 0, Final residual = 0, No Iterations 0
Saturation b:  Min(Sb) = -5.28781e-05 Max(Sb) = 0.837487
DICPCG:  Solving for p, Initial residual = 0.00180882, Final residual = 9.69788e-13, No Iterations 264
ExecutionTime = 20.9219 s  ClockTime = 22 s

Coats CFL Number mean: 0.000848072 max: 0.512018
deltaT = 0.000714971
Time = 0.108484

diagonal:  Solving for Sb, Initial residual = 0, Final residual = 0, No Iterations 0
Saturation b:  Min(Sb) = -5.28781e-05 Max(Sb) = 0.837918
DICPCG:  Solving for p, Initial residual = 0.00141175, Final residual = 9.19189e-13, No Iterations 263
ExecutionTime = 21.0469 s  ClockTime = 22 s

Coats CFL Number mean: 0.00100218 max: 1.12776
deltaT = 0.000474178
Time = 0.108958

diagonal:  Solving for Sb, Initial residual = 0, Final residual = 0, No Iterations 0
Saturation b:  Min(Sb) = -5.28777e-05 Max(Sb) = 0.838202
DICPCG:  Solving for p, Initial residual = 0.00114193, Final residual = 8.47517e-13, No Iterations 262
ExecutionTime = 21.1719 s  ClockTime = 22 s

Coats CFL Number mean: 0.000657152 max: 0.675121
deltaT = 0.000526255
Time = 0.109484

diagonal:  Solving for Sb, Initial residual = 0, Final residual = 0, No Iterations 0
Saturation b:  Min(Sb) = 1.09324e-06 Max(Sb) = 0.838515
DICPCG:  Solving for p, Initial residual = 0.00151592, Final residual = 9.56277e-13, No Iterations 262
ExecutionTime = 21.2656 s  ClockTime = 22 s

Coats CFL Number mean: 0.000717047 max: 0.595078
deltaT = 0.000591607
Time = 0.110076

diagonal:  Solving for Sb, Initial residual = 0, Final residual = 0, No Iterations 0
Saturation b:  Min(Sb) = -1.33861e-05 Max(Sb) = 0.838865
DICPCG:  Solving for p, Initial residual = 0.00178478, Final residual = 8.65422e-13, No Iterations 264
ExecutionTime = 21.4062 s  ClockTime = 22 s

Coats CFL Number mean: 0.00080466 max: 0.510315
deltaT = 0.000676122
Time = 0.110752

diagonal:  Solving for Sb, Initial residual = 0, Final residual = 0, No Iterations 0
Saturation b:  Min(Sb) = -1.33861e-05 Max(Sb) = 0.839263
DICPCG:  Solving for p, Initial residual = 0.00178031, Final residual = 8.70024e-13, No Iterations 265
ExecutionTime = 21.5312 s  ClockTime = 22 s

Coats CFL Number mean: 0.000957516 max: 0.817419
deltaT = 0.000619779
Time = 0.111372

diagonal:  Solving for Sb, Initial residual = 0, Final residual = 0, No Iterations 0
Saturation b:  Min(Sb) = -0.000103047 Max(Sb) = 0.839625
DICPCG:  Solving for p, Initial residual = 0.00125038, Final residual = 8.34434e-13, No Iterations 263
ExecutionTime = 21.6719 s  ClockTime = 22 s

Coats CFL Number mean: 0.000890288 max: 0.963065
deltaT = 0.000481676
Time = 0.111853

diagonal:  Solving for Sb, Initial residual = 0, Final residual = 0, No Iterations 0
Saturation b:  Min(Sb) = -0.000103046 Max(Sb) = 0.839905
DICPCG:  Solving for p, Initial residual = 0.00125515, Final residual = 8.98042e-13, No Iterations 262
ExecutionTime = 21.7812 s  ClockTime = 23 s

Coats CFL Number mean: 0.000681423 max: 0.63684
deltaT = 0.00053748
Time = 0.112391

diagonal:  Solving for Sb, Initial residual = 0, Final residual = 0, No Iterations 0
Saturation b:  Min(Sb) = 1.06094e-06 Max(Sb) = 0.840215
DICPCG:  Solving for p, Initial residual = 0.00159153, Final residual = 8.67015e-13, No Iterations 259
ExecutionTime = 21.9062 s  ClockTime = 23 s

Coats CFL Number mean: 0.000749277 max: 0.556576
deltaT = 0.000608397
Time = 0.112999

diagonal:  Solving for Sb, Initial residual = 0, Final residual = 0, No Iterations 0
Saturation b:  Min(Sb) = -2.7692e-05 Max(Sb) = 0.840564
DICPCG:  Solving for p, Initial residual = 0.0018148, Final residual = 8.718e-13, No Iterations 265
ExecutionTime = 22.0156 s  ClockTime = 23 s

Coats CFL Number mean: 0.000854842 max: 0.479459
deltaT = 0.00070162
Time = 0.113701

diagonal:  Solving for Sb, Initial residual = 0, Final residual = 0, No Iterations 0
Saturation b:  Min(Sb) = -2.7692e-05 Max(Sb) = 0.840965
DICPCG:  Solving for p, Initial residual = 0.00164169, Final residual = 9.4756e-13, No Iterations 265
ExecutionTime = 22.1719 s  ClockTime = 23 s

Coats CFL Number mean: 0.00102852 max: 1.01608
deltaT = 0.000516762
Time = 0.114218

diagonal:  Solving for Sb, Initial residual = 0, Final residual = 0, No Iterations 0
Saturation b:  Min(Sb) = -5.03351e-05 Max(Sb) = 0.841258
DICPCG:  Solving for p, Initial residual = 0.00110499, Final residual = 7.94334e-13, No Iterations 263
ExecutionTime = 22.2812 s  ClockTime = 23 s

Coats CFL Number mean: 0.000757041 max: 0.782562
deltaT = 0.000493003
Time = 0.114711

diagonal:  Solving for Sb, Initial residual = 0, Final residual = 0, No Iterations 0
Saturation b:  Min(Sb) = -5.03329e-05 Max(Sb) = 0.841536
DICPCG:  Solving for p, Initial residual = 0.00133541, Final residual = 9.77985e-13, No Iterations 262
ExecutionTime = 22.4531 s  ClockTime = 23 s

Coats CFL Number mean: 0.000710187 max: 0.617257
deltaT = 0.000550254
Time = 0.115261

diagonal:  Solving for Sb, Initial residual = 0, Final residual = 0, No Iterations 0
Saturation b:  Min(Sb) = 9.60347e-07 Max(Sb) = 0.841844
DICPCG:  Solving for p, Initial residual = 0.00165187, Final residual = 9.64243e-13, No Iterations 263
ExecutionTime = 22.5781 s  ClockTime = 23 s

Coats CFL Number mean: 0.000782956 max: 0.535226
deltaT = 0.000623082
Time = 0.115884

diagonal:  Solving for Sb, Initial residual = 0, Final residual = 0, No Iterations 0
Saturation b:  Min(Sb) = -4.29354e-05 Max(Sb) = 0.842192
DICPCG:  Solving for p, Initial residual = 0.00181984, Final residual = 7.93784e-13, No Iterations 266
ExecutionTime = 22.6875 s  ClockTime = 23 s

Coats CFL Number mean: 0.000900758 max: 0.460731
deltaT = 0.000718941
Time = 0.116603

diagonal:  Solving for Sb, Initial residual = 0, Final residual = 0, No Iterations 0
Saturation b:  Min(Sb) = -4.29354e-05 Max(Sb) = 0.84259
DICPCG:  Solving for p, Initial residual = 0.00146917, Final residual = 9.50892e-13, No Iterations 265
ExecutionTime = 22.8281 s  ClockTime = 24 s

Coats CFL Number mean: 0.00107896 max: 1.10125
deltaT = 0.000487703
Time = 0.117091

diagonal:  Solving for Sb, Initial residual = 0, Final residual = 0, No Iterations 0
Saturation b:  Min(Sb) = -4.2935e-05 Max(Sb) = 0.842859
DICPCG:  Solving for p, Initial residual = 0.0010851, Final residual = 9.49e-13, No Iterations 262
ExecutionTime = 22.9531 s  ClockTime = 24 s

Coats CFL Number mean: 0.000726168 max: 0.705588
deltaT = 0.000518184
Time = 0.117609

diagonal:  Solving for Sb, Initial residual = 0, Final residual = 0, No Iterations 0
Saturation b:  Min(Sb) = 7.2427e-07 Max(Sb) = 0.843143
DICPCG:  Solving for p, Initial residual = 0.00145038, Final residual = 8.80373e-13, No Iterations 259
ExecutionTime = 23.0781 s  ClockTime = 24 s

Coats CFL Number mean: 0.000758936 max: 0.603879
deltaT = 0.00058022
Time = 0.118189

diagonal:  Solving for Sb, Initial residual = 0, Final residual = 0, No Iterations 0
Saturation b:  Min(Sb) = 7.2427e-07 Max(Sb) = 0.843458
DICPCG:  Solving for p, Initial residual = 0.00174973, Final residual = 8.4983e-13, No Iterations 265
ExecutionTime = 23.2031 s  ClockTime = 24 s

Coats CFL Number mean: 0.000843844 max: 0.518008
deltaT = 0.000659767
Time = 0.118849

diagonal:  Solving for Sb, Initial residual = 0, Final residual = 0, No Iterations 0
Saturation b:  Min(Sb) = -6.9246e-05 Max(Sb) = 0.843815
DICPCG:  Solving for p, Initial residual = 0.00182471, Final residual = 8.5765e-13, No Iterations 267
ExecutionTime = 23.4375 s  ClockTime = 24 s

Coats CFL Number mean: 0.000987471 max: 0.635313
deltaT = 0.000731093
Time = 0.11958

diagonal:  Solving for Sb, Initial residual = 0, Final residual = 0, No Iterations 0
Saturation b:  Min(Sb) = -6.92459e-05 Max(Sb) = 0.844209
DICPCG:  Solving for p, Initial residual = 0.00144105, Final residual = 9.07098e-13, No Iterations 265
ExecutionTime = 23.5312 s  ClockTime = 24 s

Coats CFL Number mean: 0.00112068 max: 1.12275
deltaT = 0.000487395
Time = 0.120067

diagonal:  Solving for Sb, Initial residual = 0, Final residual = 0, No Iterations 0
Saturation b:  Min(Sb) = -6.92446e-05 Max(Sb) = 0.84447
DICPCG:  Solving for p, Initial residual = 0.00123521, Final residual = 9.93093e-13, No Iterations 258
ExecutionTime = 23.7031 s  ClockTime = 25 s

Coats CFL Number mean: 0.000737079 max: 0.642669
deltaT = 0.000543761
Time = 0.120611

diagonal:  Solving for Sb, Initial residual = 0, Final residual = 0, No Iterations 0
Saturation b:  Min(Sb) = 1.08184e-06 Max(Sb) = 0.844759
DICPCG:  Solving for p, Initial residual = 0.00157717, Final residual = 8.6186e-13, No Iterations 263
ExecutionTime = 23.8594 s  ClockTime = 25 s

Coats CFL Number mean: 0.000810819 max: 0.561633
deltaT = 0.000615419
Time = 0.121226

diagonal:  Solving for Sb, Initial residual = 0, Final residual = 0, No Iterations 0
Saturation b:  Min(Sb) = -2.21916e-05 Max(Sb) = 0.845084
DICPCG:  Solving for p, Initial residual = 0.00181789, Final residual = 9.40159e-13, No Iterations 266
ExecutionTime = 24.0625 s  ClockTime = 25 s

Coats CFL Number mean: 0.000921821 max: 0.482354
deltaT = 0.000709672
Time = 0.121936

diagonal:  Solving for Sb, Initial residual = 0, Final residual = 0, No Iterations 0
Saturation b:  Min(Sb) = -2.21916e-05 Max(Sb) = 0.845457
DICPCG:  Solving for p, Initial residual = 0.00170736, Final residual = 8.12425e-13, No Iterations 267
ExecutionTime = 24.2188 s  ClockTime = 25 s

Coats CFL Number mean: 0.00110644 max: 0.967426
deltaT = 0.000549746
Time = 0.122486

diagonal:  Solving for Sb, Initial residual = 0, Final residual = 0, No Iterations 0
Saturation b:  Min(Sb) = -5.10565e-05 Max(Sb) = 0.845744
DICPCG:  Solving for p, Initial residual = 0.00113512, Final residual = 9.60289e-13, No Iterations 262
ExecutionTime = 24.3125 s  ClockTime = 25 s

Coats CFL Number mean: 0.000860065 max: 0.826122
deltaT = 0.000496886
Time = 0.122983

diagonal:  Solving for Sb, Initial residual = 0, Final residual = 0, No Iterations 0
Saturation b:  Min(Sb) = -5.10539e-05 Max(Sb) = 0.846002
DICPCG:  Solving for p, Initial residual = 0.00130135, Final residual = 8.41336e-13, No Iterations 262
ExecutionTime = 24.4219 s  ClockTime = 25 s

Coats CFL Number mean: 0.000765899 max: 0.62083
deltaT = 0.000554081
Time = 0.123537

diagonal:  Solving for Sb, Initial residual = 0, Final residual = 0, No Iterations 0
Saturation b:  Min(Sb) = 1.00803e-06 Max(Sb) = 0.846288
DICPCG:  Solving for p, Initial residual = 0.00162601, Final residual = 8.7806e-13, No Iterations 265
ExecutionTime = 24.5625 s  ClockTime = 25 s

Coats CFL Number mean: 0.000843938 max: 0.537671
deltaT = 0.000626748
Time = 0.124164

diagonal:  Solving for Sb, Initial residual = 0, Final residual = 0, No Iterations 0
Saturation b:  Min(Sb) = -3.71351e-05 Max(Sb) = 0.84661
DICPCG:  Solving for p, Initial residual = 0.00181708, Final residual = 9.46497e-13, No Iterations 266
ExecutionTime = 24.8125 s  ClockTime = 26 s

Coats CFL Number mean: 0.000965789 max: 0.46118
deltaT = 0.000722252
Time = 0.124886

diagonal:  Solving for Sb, Initial residual = 0, Final residual = 0, No Iterations 0
Saturation b:  Min(Sb) = -3.71351e-05 Max(Sb) = 0.846979
DICPCG:  Solving for p, Initial residual = 0.0015536, Final residual = 8.31989e-13, No Iterations 267
ExecutionTime = 25.0469 s  ClockTime = 26 s

Coats CFL Number mean: 0.00115452 max: 1.06672
deltaT = 0.000507529
Time = 0.125393

diagonal:  Solving for Sb, Initial residual = 0, Final residual = 0, No Iterations 0
Saturation b:  Min(Sb) = -1.54057e-05 Max(Sb) = 0.847237
DICPCG:  Solving for p, Initial residual = 0.00109403, Final residual = 8.16983e-13, No Iterations 263
ExecutionTime = 25.1094 s  ClockTime = 26 s

Coats CFL Number mean: 0.000807228 max: 0.733906
deltaT = 0.000518102
Time = 0.125911

diagonal:  Solving for Sb, Initial residual = 0, Final residual = 0, No Iterations 0
Saturation b:  Min(Sb) = 8.52661e-07 Max(Sb) = 0.847499
DICPCG:  Solving for p, Initial residual = 0.00140107, Final residual = 9.48578e-13, No Iterations 263
ExecutionTime = 25.2031 s  ClockTime = 26 s

Coats CFL Number mean: 0.000811488 max: 0.608577
deltaT = 0.000578817
Time = 0.12649

diagonal:  Solving for Sb, Initial residual = 0, Final residual = 0, No Iterations 0
Saturation b:  Min(Sb) = 8.52661e-07 Max(Sb) = 0.847789
DICPCG:  Solving for p, Initial residual = 0.00171252, Final residual = 9.9153e-13, No Iterations 265
ExecutionTime = 25.2812 s  ClockTime = 26 s

Coats CFL Number mean: 0.000898558 max: 0.521648
deltaT = 0.000656337
Time = 0.127147

diagonal:  Solving for Sb, Initial residual = 0, Final residual = 0, No Iterations 0
Saturation b:  Min(Sb) = -5.81562e-05 Max(Sb) = 0.848117
DICPCG:  Solving for p, Initial residual = 0.00183709, Final residual = 8.42847e-13, No Iterations 267
ExecutionTime = 25.4688 s  ClockTime = 26 s

Coats CFL Number mean: 0.00104056 max: 0.53568
deltaT = 0.000743403
Time = 0.12789

diagonal:  Solving for Sb, Initial residual = 0, Final residual = 0, No Iterations 0
Saturation b:  Min(Sb) = -5.81562e-05 Max(Sb) = 0.848486
DICPCG:  Solving for p, Initial residual = 0.0014503, Final residual = 8.05414e-13, No Iterations 267
ExecutionTime = 25.6406 s  ClockTime = 27 s

Coats CFL Number mean: 0.00121202 max: 1.12973
deltaT = 0.000490545
Time = 0.12838

diagonal:  Solving for Sb, Initial residual = 0, Final residual = 0, No Iterations 0
Saturation b:  Min(Sb) = -5.81548e-05 Max(Sb) = 0.848729
DICPCG:  Solving for p, Initial residual = 0.0011681, Final residual = 8.43565e-13, No Iterations 263
ExecutionTime = 25.9219 s  ClockTime = 27 s

Coats CFL Number mean: 0.000791023 max: 0.66057
deltaT = 0.000542572
Time = 0.128923

diagonal:  Solving for Sb, Initial residual = 0, Final residual = 0, No Iterations 0
Saturation b:  Min(Sb) = 1.08377e-06 Max(Sb) = 0.848995
DICPCG:  Solving for p, Initial residual = 0.00153269, Final residual = 9.83051e-13, No Iterations 264
ExecutionTime = 26.0938 s  ClockTime = 27 s

Coats CFL Number mean: 0.000862571 max: 0.576188
deltaT = 0.000612732
Time = 0.129536

diagonal:  Solving for Sb, Initial residual = 0, Final residual = 0, No Iterations 0
Saturation b:  Min(Sb) = -1.49375e-05 Max(Sb) = 0.849294
DICPCG:  Solving for p, Initial residual = 0.00181073, Final residual = 9.21972e-13, No Iterations 266
ExecutionTime = 26.25 s  ClockTime = 27 s

Coats CFL Number mean: 0.00097314 max: 0.493443
deltaT = 0.000704642
Time = 0.13024

diagonal:  Solving for Sb, Initial residual = 0, Final residual = 0, No Iterations 0
Saturation b:  Min(Sb) = -1.49375e-05 Max(Sb) = 0.849636
DICPCG:  Solving for p, Initial residual = 0.00181346, Final residual = 8.8337e-13, No Iterations 267
ExecutionTime = 26.375 s  ClockTime = 27 s

Coats CFL Number mean: 0.00115804 max: 0.834421
deltaT = 0.000628465
Time = 0.130869

diagonal:  Solving for Sb, Initial residual = 0, Final residual = 0, No Iterations 0
Saturation b:  Min(Sb) = -8.02613e-05 Max(Sb) = 0.84994
DICPCG:  Solving for p, Initial residual = 0.00125634, Final residual = 9.42863e-13, No Iterations 265
ExecutionTime = 26.5 s  ClockTime = 27 s

Coats CFL Number mean: 0.00104438 max: 0.938276
deltaT = 0.00050095
Time = 0.13137

diagonal:  Solving for Sb, Initial residual = 0, Final residual = 0, No Iterations 0
Saturation b:  Min(Sb) = -8.02585e-05 Max(Sb) = 0.85018
DICPCG:  Solving for p, Initial residual = 0.00126416, Final residual = 8.98459e-13, No Iterations 263
ExecutionTime = 26.625 s  ClockTime = 28 s

Coats CFL Number mean: 0.000821917 max: 0.629854
deltaT = 0.000557969
Time = 0.131928

diagonal:  Solving for Sb, Initial residual = 0, Final residual = 0, No Iterations 0
Saturation b:  Min(Sb) = 1.0587e-06 Max(Sb) = 0.850446
DICPCG:  Solving for p, Initial residual = 0.00160007, Final residual = 8.66388e-13, No Iterations 265
ExecutionTime = 26.7969 s  ClockTime = 28 s

Coats CFL Number mean: 0.000904978 max: 0.545602
deltaT = 0.000630298
Time = 0.132558

diagonal:  Solving for Sb, Initial residual = 0, Final residual = 0, No Iterations 0
Saturation b:  Min(Sb) = -2.90054e-05 Max(Sb) = 0.850746
DICPCG:  Solving for p, Initial residual = 0.00182, Final residual = 7.93427e-13, No Iterations 266
ExecutionTime = 26.875 s  ClockTime = 28 s

Coats CFL Number mean: 0.00102998 max: 0.466269
deltaT = 0.000725182
Time = 0.133283

diagonal:  Solving for Sb, Initial residual = 0, Final residual = 0, No Iterations 0
Saturation b:  Min(Sb) = -2.90054e-05 Max(Sb) = 0.851088
DICPCG:  Solving for p, Initial residual = 0.00164997, Final residual = 9.10096e-13, No Iterations 267
ExecutionTime = 27.0938 s  ClockTime = 28 s

Coats CFL Number mean: 0.00122892 max: 1.00587
deltaT = 0.000538038
Time = 0.133821

diagonal:  Solving for Sb, Initial residual = 0, Final residual = 0, No Iterations 0
Saturation b:  Min(Sb) = -2.07766e-05 Max(Sb) = 0.851341
DICPCG:  Solving for p, Initial residual = 0.00111161, Final residual = 8.718e-13, No Iterations 264
ExecutionTime = 27.375 s  ClockTime = 28 s

Coats CFL Number mean: 0.000911912 max: 0.779622
deltaT = 0.000517021
Time = 0.134338

diagonal:  Solving for Sb, Initial residual = 0, Final residual = 0, No Iterations 0
Saturation b:  Min(Sb) = 9.65388e-07 Max(Sb) = 0.851583
DICPCG:  Solving for p, Initial residual = 0.00133581, Final residual = 8.22636e-13, No Iterations 264
ExecutionTime = 27.4688 s  ClockTime = 28 s

Coats CFL Number mean: 0.000864802 max: 0.616948
deltaT = 0.000575979
Time = 0.134914

diagonal:  Solving for Sb, Initial residual = 0, Final residual = 0, No Iterations 0
Saturation b:  Min(Sb) = 9.65388e-07 Max(Sb) = 0.85185
DICPCG:  Solving for p, Initial residual = 0.00166034, Final residual = 8.98294e-13, No Iterations 265
ExecutionTime = 27.5625 s  ClockTime = 29 s

Coats CFL Number mean: 0.000954243 max: 0.528919
deltaT = 0.000657431
Time = 0.135572

diagonal:  Solving for Sb, Initial residual = 0, Final residual = 0, No Iterations 0
Saturation b:  Min(Sb) = -4.5607e-05 Max(Sb) = 0.852154
DICPCG:  Solving for p, Initial residual = 0.00184835, Final residual = 8.01991e-13, No Iterations 263
ExecutionTime = 27.7031 s  ClockTime = 29 s

Coats CFL Number mean: 0.00110485 max: 0.453695
deltaT = 0.000757979
Time = 0.13633

diagonal:  Solving for Sb, Initial residual = 0, Final residual = 0, No Iterations 0
Saturation b:  Min(Sb) = -4.56069e-05 Max(Sb) = 0.852503
DICPCG:  Solving for p, Initial residual = 0.00147844, Final residual = 8.31425e-13, No Iterations 267
ExecutionTime = 27.8594 s  ClockTime = 29 s

Coats CFL Number mean: 0.00131453 max: 1.12256
deltaT = 0.000505319
Time = 0.136835

diagonal:  Solving for Sb, Initial residual = 0, Final residual = 0, No Iterations 0
Saturation b:  Min(Sb) = -4.56057e-05 Max(Sb) = 0.852734
DICPCG:  Solving for p, Initial residual = 0.00109918, Final residual = 9.32434e-13, No Iterations 263
ExecutionTime = 27.9844 s  ClockTime = 29 s

[...]
ExecutionTime = 462.953 s  ClockTime = 469 s

Coats CFL Number mean: 0.00138469 max: 0.0300006
deltaT = 0.00121951
Time = 4.93659

diagonal:  Solving for Sb, Initial residual = 0, Final residual = 0, No Iterations 0
Saturation b:  Min(Sb) = -5.02337e-05 Max(Sb) = 0.977212
DICPCG:  Solving for p, Initial residual = 4.89024e-05, Final residual = 9.57138e-13, No Iterations 313
ExecutionTime = 463.031 s  ClockTime = 469 s

Coats CFL Number mean: 0.00138389 max: 0.0299931
deltaT = 0.00121951
Time = 4.9378

diagonal:  Solving for Sb, Initial residual = 0, Final residual = 0, No Iterations 0
Saturation b:  Min(Sb) = -5.02337e-05 Max(Sb) = 0.977213
DICPCG:  Solving for p, Initial residual = 2.90039e-05, Final residual = 8.43926e-13, No Iterations 313
ExecutionTime = 463.125 s  ClockTime = 469 s

Coats CFL Number mean: 0.00138348 max: 0.0299851
deltaT = 0.00121951
Time = 4.93902

diagonal:  Solving for Sb, Initial residual = 0, Final residual = 0, No Iterations 0
Saturation b:  Min(Sb) = -5.02337e-05 Max(Sb) = 0.977215
DICPCG:  Solving for p, Initial residual = 2.89201e-05, Final residual = 8.8159e-13, No Iterations 313
ExecutionTime = 463.219 s  ClockTime = 469 s

Coats CFL Number mean: 0.00138313 max: 0.029978
deltaT = 0.00121951
Time = 4.94024

diagonal:  Solving for Sb, Initial residual = 0, Final residual = 0, No Iterations 0
Saturation b:  Min(Sb) = -5.02337e-05 Max(Sb) = 0.977216
DICPCG:  Solving for p, Initial residual = 2.88471e-05, Final residual = 8.36102e-13, No Iterations 313
ExecutionTime = 463.312 s  ClockTime = 469 s

Coats CFL Number mean: 0.00138274 max: 0.0299704
deltaT = 0.00121951
Time = 4.94146

diagonal:  Solving for Sb, Initial residual = 0, Final residual = 0, No Iterations 0
Saturation b:  Min(Sb) = -5.02337e-05 Max(Sb) = 0.977218
DICPCG:  Solving for p, Initial residual = 2.88497e-05, Final residual = 8.54841e-13, No Iterations 313
ExecutionTime = 463.391 s  ClockTime = 469 s

Coats CFL Number mean: 0.00138235 max: 0.029963
deltaT = 0.00121951
Time = 4.94268

diagonal:  Solving for Sb, Initial residual = 0, Final residual = 0, No Iterations 0
Saturation b:  Min(Sb) = -5.02337e-05 Max(Sb) = 0.977219
DICPCG:  Solving for p, Initial residual = 2.88312e-05, Final residual = 8.49523e-13, No Iterations 313
ExecutionTime = 463.484 s  ClockTime = 469 s

Coats CFL Number mean: 0.00138197 max: 0.0299555
deltaT = 0.00121951
Time = 4.9439

diagonal:  Solving for Sb, Initial residual = 0, Final residual = 0, No Iterations 0
Saturation b:  Min(Sb) = -5.02337e-05 Max(Sb) = 0.977221
DICPCG:  Solving for p, Initial residual = 2.88139e-05, Final residual = 8.49959e-13, No Iterations 313
ExecutionTime = 463.578 s  ClockTime = 469 s

Coats CFL Number mean: 0.00138159 max: 0.0299481
deltaT = 0.00121951
Time = 4.94512

diagonal:  Solving for Sb, Initial residual = 0, Final residual = 0, No Iterations 0
Saturation b:  Min(Sb) = -5.02337e-05 Max(Sb) = 0.977222
DICPCG:  Solving for p, Initial residual = 2.88022e-05, Final residual = 8.48792e-13, No Iterations 313
ExecutionTime = 463.672 s  ClockTime = 469 s

Coats CFL Number mean: 0.00138121 max: 0.0299407
deltaT = 0.00121951
Time = 4.94634

diagonal:  Solving for Sb, Initial residual = 0, Final residual = 0, No Iterations 0
Saturation b:  Min(Sb) = -5.02337e-05 Max(Sb) = 0.977224
DICPCG:  Solving for p, Initial residual = 2.87894e-05, Final residual = 8.48281e-13, No Iterations 313
ExecutionTime = 463.75 s  ClockTime = 470 s

Coats CFL Number mean: 0.00138083 max: 0.0299332
deltaT = 0.00121951
Time = 4.94756

diagonal:  Solving for Sb, Initial residual = 0, Final residual = 0, No Iterations 0
Saturation b:  Min(Sb) = -5.02337e-05 Max(Sb) = 0.977226
DICPCG:  Solving for p, Initial residual = 2.87774e-05, Final residual = 8.47613e-13, No Iterations 313
ExecutionTime = 463.844 s  ClockTime = 470 s

Coats CFL Number mean: 0.00138045 max: 0.0299258
deltaT = 0.00121951
Time = 4.94878

diagonal:  Solving for Sb, Initial residual = 0, Final residual = 0, No Iterations 0
Saturation b:  Min(Sb) = -5.02337e-05 Max(Sb) = 0.977227
DICPCG:  Solving for p, Initial residual = 2.87644e-05, Final residual = 8.46705e-13, No Iterations 313
ExecutionTime = 463.938 s  ClockTime = 470 s

Coats CFL Number mean: 0.00138007 max: 0.0299184
deltaT = 0.00121951
Time = 4.95

diagonal:  Solving for Sb, Initial residual = 0, Final residual = 0, No Iterations 0
Saturation b:  Min(Sb) = -5.02337e-05 Max(Sb) = 0.977229
DICPCG:  Solving for p, Initial residual = 3.0504e-05, Final residual = 8.40079e-13, No Iterations 313
ExecutionTime = 464.031 s  ClockTime = 470 s

Coats CFL Number mean: 0.00137973 max: 0.0299109
deltaT = 0.00121951
Time = 4.95122

diagonal:  Solving for Sb, Initial residual = 0, Final residual = 0, No Iterations 0
Saturation b:  Min(Sb) = -5.02337e-05 Max(Sb) = 0.97723
DICPCG:  Solving for p, Initial residual = 2.90225e-05, Final residual = 9.78371e-13, No Iterations 312
ExecutionTime = 464.109 s  ClockTime = 470 s

Coats CFL Number mean: 0.00137935 max: 0.0299035
deltaT = 0.00121951
Time = 4.95244

diagonal:  Solving for Sb, Initial residual = 0, Final residual = 0, No Iterations 0
Saturation b:  Min(Sb) = -5.02337e-05 Max(Sb) = 0.977232
DICPCG:  Solving for p, Initial residual = 2.86942e-05, Final residual = 8.46689e-13, No Iterations 313
ExecutionTime = 464.203 s  ClockTime = 470 s

Coats CFL Number mean: 0.00137897 max: 0.0298961
deltaT = 0.00121951
Time = 4.95366

diagonal:  Solving for Sb, Initial residual = 0, Final residual = 0, No Iterations 0
Saturation b:  Min(Sb) = -5.02337e-05 Max(Sb) = 0.977233
DICPCG:  Solving for p, Initial residual = 2.86732e-05, Final residual = 9.93381e-13, No Iterations 312
ExecutionTime = 464.297 s  ClockTime = 470 s

Coats CFL Number mean: 0.00137859 max: 0.0298887
deltaT = 0.00121951
Time = 4.95488

diagonal:  Solving for Sb, Initial residual = 0, Final residual = 0, No Iterations 0
Saturation b:  Min(Sb) = -5.02337e-05 Max(Sb) = 0.977235
DICPCG:  Solving for p, Initial residual = 2.86585e-05, Final residual = 8.4144e-13, No Iterations 313
ExecutionTime = 464.391 s  ClockTime = 470 s

Coats CFL Number mean: 0.00137822 max: 0.0298812
deltaT = 0.00121951
Time = 4.9561

diagonal:  Solving for Sb, Initial residual = 0, Final residual = 0, No Iterations 0
Saturation b:  Min(Sb) = -5.02337e-05 Max(Sb) = 0.977236
DICPCG:  Solving for p, Initial residual = 2.86408e-05, Final residual = 8.41346e-13, No Iterations 313
ExecutionTime = 464.484 s  ClockTime = 470 s

Coats CFL Number mean: 0.00137784 max: 0.0298738
deltaT = 0.00121951
Time = 4.95732

diagonal:  Solving for Sb, Initial residual = 0, Final residual = 0, No Iterations 0
Saturation b:  Min(Sb) = -5.02337e-05 Max(Sb) = 0.977238
DICPCG:  Solving for p, Initial residual = 2.86224e-05, Final residual = 8.41204e-13, No Iterations 313
ExecutionTime = 464.562 s  ClockTime = 470 s

Coats CFL Number mean: 0.00137747 max: 0.0298664
deltaT = 0.00121951
Time = 4.95854

diagonal:  Solving for Sb, Initial residual = 0, Final residual = 0, No Iterations 0
Saturation b:  Min(Sb) = -5.02337e-05 Max(Sb) = 0.97724
DICPCG:  Solving for p, Initial residual = 2.86034e-05, Final residual = 8.40662e-13, No Iterations 313
ExecutionTime = 464.656 s  ClockTime = 470 s

Coats CFL Number mean: 0.00137709 max: 0.029859
deltaT = 0.00121951
Time = 4.95976

diagonal:  Solving for Sb, Initial residual = 0, Final residual = 0, No Iterations 0
Saturation b:  Min(Sb) = -5.02337e-05 Max(Sb) = 0.977241
DICPCG:  Solving for p, Initial residual = 2.85837e-05, Final residual = 8.4006e-13, No Iterations 313
ExecutionTime = 464.75 s  ClockTime = 471 s

Coats CFL Number mean: 0.00137672 max: 0.0298517
deltaT = 0.00121951
Time = 4.96098

diagonal:  Solving for Sb, Initial residual = 0, Final residual = 0, No Iterations 0
Saturation b:  Min(Sb) = -5.02337e-05 Max(Sb) = 0.977243
DICPCG:  Solving for p, Initial residual = 2.85636e-05, Final residual = 8.39827e-13, No Iterations 313
ExecutionTime = 464.844 s  ClockTime = 471 s

Coats CFL Number mean: 0.00137635 max: 0.0298443
deltaT = 0.00121951
Time = 4.9622

diagonal:  Solving for Sb, Initial residual = 0, Final residual = 0, No Iterations 0
Saturation b:  Min(Sb) = -5.02337e-05 Max(Sb) = 0.977244
DICPCG:  Solving for p, Initial residual = 2.8543e-05, Final residual = 8.39022e-13, No Iterations 313
ExecutionTime = 464.938 s  ClockTime = 471 s

Coats CFL Number mean: 0.00137597 max: 0.0298369
deltaT = 0.00121951
Time = 4.96341

diagonal:  Solving for Sb, Initial residual = 0, Final residual = 0, No Iterations 0
Saturation b:  Min(Sb) = -5.02337e-05 Max(Sb) = 0.977246
DICPCG:  Solving for p, Initial residual = 2.8522e-05, Final residual = 8.38208e-13, No Iterations 313
ExecutionTime = 465.016 s  ClockTime = 471 s

Coats CFL Number mean: 0.0013756 max: 0.0298295
deltaT = 0.00121951
Time = 4.96463

diagonal:  Solving for Sb, Initial residual = 0, Final residual = 0, No Iterations 0
Saturation b:  Min(Sb) = -5.02337e-05 Max(Sb) = 0.977247
DICPCG:  Solving for p, Initial residual = 2.85007e-05, Final residual = 8.37949e-13, No Iterations 313
ExecutionTime = 465.109 s  ClockTime = 471 s

Coats CFL Number mean: 0.00137523 max: 0.0298221
deltaT = 0.00121951
Time = 4.96585

diagonal:  Solving for Sb, Initial residual = 0, Final residual = 0, No Iterations 0
Saturation b:  Min(Sb) = -5.02337e-05 Max(Sb) = 0.977249
DICPCG:  Solving for p, Initial residual = 2.84793e-05, Final residual = 8.3731e-13, No Iterations 313
ExecutionTime = 465.203 s  ClockTime = 471 s

Coats CFL Number mean: 0.00137486 max: 0.0298148
deltaT = 0.00121951
Time = 4.96707

diagonal:  Solving for Sb, Initial residual = 0, Final residual = 0, No Iterations 0
Saturation b:  Min(Sb) = -5.02337e-05 Max(Sb) = 0.97725
DICPCG:  Solving for p, Initial residual = 2.84593e-05, Final residual = 8.36715e-13, No Iterations 313
ExecutionTime = 465.297 s  ClockTime = 471 s

Coats CFL Number mean: 0.00137449 max: 0.0298074
deltaT = 0.00121951
Time = 4.96829

diagonal:  Solving for Sb, Initial residual = 0, Final residual = 0, No Iterations 0
Saturation b:  Min(Sb) = -5.02337e-05 Max(Sb) = 0.977252
DICPCG:  Solving for p, Initial residual = 2.84392e-05, Final residual = 8.36047e-13, No Iterations 313
ExecutionTime = 465.375 s  ClockTime = 471 s

Coats CFL Number mean: 0.00137412 max: 0.0298
deltaT = 0.00121951
Time = 4.96951

diagonal:  Solving for Sb, Initial residual = 0, Final residual = 0, No Iterations 0
Saturation b:  Min(Sb) = -5.02337e-05 Max(Sb) = 0.977254
DICPCG:  Solving for p, Initial residual = 2.84189e-05, Final residual = 8.3554e-13, No Iterations 313
ExecutionTime = 465.469 s  ClockTime = 471 s

Coats CFL Number mean: 0.00137375 max: 0.0297927
deltaT = 0.00121951
Time = 4.97073

diagonal:  Solving for Sb, Initial residual = 0, Final residual = 0, No Iterations 0
Saturation b:  Min(Sb) = -5.02337e-05 Max(Sb) = 0.977255
DICPCG:  Solving for p, Initial residual = 2.83985e-05, Final residual = 8.34605e-13, No Iterations 313
ExecutionTime = 465.562 s  ClockTime = 471 s

Coats CFL Number mean: 0.00137338 max: 0.0297853
deltaT = 0.00121951
Time = 4.97195

diagonal:  Solving for Sb, Initial residual = 0, Final residual = 0, No Iterations 0
Saturation b:  Min(Sb) = -5.02337e-05 Max(Sb) = 0.977257
DICPCG:  Solving for p, Initial residual = 2.83794e-05, Final residual = 8.34168e-13, No Iterations 313
ExecutionTime = 465.656 s  ClockTime = 471 s

Coats CFL Number mean: 0.00137301 max: 0.029778
deltaT = 0.00121951
Time = 4.97317

diagonal:  Solving for Sb, Initial residual = 0, Final residual = 0, No Iterations 0
Saturation b:  Min(Sb) = -5.02337e-05 Max(Sb) = 0.977258
DICPCG:  Solving for p, Initial residual = 2.83614e-05, Final residual = 8.33351e-13, No Iterations 313
ExecutionTime = 465.734 s  ClockTime = 472 s

Coats CFL Number mean: 0.00137264 max: 0.0297706
deltaT = 0.00121951
Time = 4.97439

diagonal:  Solving for Sb, Initial residual = 0, Final residual = 0, No Iterations 0
Saturation b:  Min(Sb) = -5.02337e-05 Max(Sb) = 0.97726
DICPCG:  Solving for p, Initial residual = 2.83445e-05, Final residual = 8.32838e-13, No Iterations 313
ExecutionTime = 465.828 s  ClockTime = 472 s

Coats CFL Number mean: 0.00137227 max: 0.0297633
deltaT = 0.00121951
Time = 4.97561

diagonal:  Solving for Sb, Initial residual = 0, Final residual = 0, No Iterations 0
Saturation b:  Min(Sb) = -5.02337e-05 Max(Sb) = 0.977261
DICPCG:  Solving for p, Initial residual = 2.83278e-05, Final residual = 8.32542e-13, No Iterations 313
ExecutionTime = 465.922 s  ClockTime = 472 s

Coats CFL Number mean: 0.0013719 max: 0.029756
deltaT = 0.00121951
Time = 4.97683

diagonal:  Solving for Sb, Initial residual = 0, Final residual = 0, No Iterations 0
Saturation b:  Min(Sb) = -5.02337e-05 Max(Sb) = 0.977263
DICPCG:  Solving for p, Initial residual = 2.8313e-05, Final residual = 8.27194e-13, No Iterations 313
ExecutionTime = 466.016 s  ClockTime = 472 s

Coats CFL Number mean: 0.00137153 max: 0.0297486
deltaT = 0.00121951
Time = 4.97805

diagonal:  Solving for Sb, Initial residual = 0, Final residual = 0, No Iterations 0
Saturation b:  Min(Sb) = -5.02337e-05 Max(Sb) = 0.977264
DICPCG:  Solving for p, Initial residual = 2.82984e-05, Final residual = 8.29368e-13, No Iterations 313
ExecutionTime = 466.109 s  ClockTime = 472 s

Coats CFL Number mean: 0.00137116 max: 0.0297413
deltaT = 0.00121951
Time = 4.97927

diagonal:  Solving for Sb, Initial residual = 0, Final residual = 0, No Iterations 0
Saturation b:  Min(Sb) = -5.02337e-05 Max(Sb) = 0.977266
DICPCG:  Solving for p, Initial residual = 2.82876e-05, Final residual = 8.30371e-13, No Iterations 313
ExecutionTime = 466.203 s  ClockTime = 472 s

Coats CFL Number mean: 0.0013708 max: 0.029734
deltaT = 0.00121951
Time = 4.98049

diagonal:  Solving for Sb, Initial residual = 0, Final residual = 0, No Iterations 0
Saturation b:  Min(Sb) = -5.02337e-05 Max(Sb) = 0.977267
DICPCG:  Solving for p, Initial residual = 2.82768e-05, Final residual = 8.29168e-13, No Iterations 313
ExecutionTime = 466.297 s  ClockTime = 472 s

Coats CFL Number mean: 0.00137043 max: 0.0297267
deltaT = 0.00121951
Time = 4.98171

diagonal:  Solving for Sb, Initial residual = 0, Final residual = 0, No Iterations 0
Saturation b:  Min(Sb) = -5.02337e-05 Max(Sb) = 0.977269
DICPCG:  Solving for p, Initial residual = 2.82616e-05, Final residual = 8.28646e-13, No Iterations 313
ExecutionTime = 466.375 s  ClockTime = 472 s

Coats CFL Number mean: 0.00137007 max: 0.0297193
deltaT = 0.00121951
Time = 4.98293

diagonal:  Solving for Sb, Initial residual = 0, Final residual = 0, No Iterations 0
Saturation b:  Min(Sb) = -5.02337e-05 Max(Sb) = 0.97727
DICPCG:  Solving for p, Initial residual = 2.82733e-05, Final residual = 8.28642e-13, No Iterations 313
ExecutionTime = 466.469 s  ClockTime = 472 s

Coats CFL Number mean: 0.00136971 max: 0.029712
deltaT = 0.00121951
Time = 4.98415

diagonal:  Solving for Sb, Initial residual = 0, Final residual = 0, No Iterations 0
Saturation b:  Min(Sb) = -5.02337e-05 Max(Sb) = 0.977272
DICPCG:  Solving for p, Initial residual = 2.82524e-05, Final residual = 8.27063e-13, No Iterations 313
ExecutionTime = 466.562 s  ClockTime = 472 s

Coats CFL Number mean: 0.00136936 max: 0.0297047
deltaT = 0.00121951
Time = 4.98537

diagonal:  Solving for Sb, Initial residual = 0, Final residual = 0, No Iterations 0
Saturation b:  Min(Sb) = -5.02337e-05 Max(Sb) = 0.977274
DICPCG:  Solving for p, Initial residual = 2.82459e-05, Final residual = 8.26393e-13, No Iterations 313
ExecutionTime = 466.656 s  ClockTime = 472 s

Coats CFL Number mean: 0.001369 max: 0.0296974
deltaT = 0.00121951
Time = 4.98659

diagonal:  Solving for Sb, Initial residual = 0, Final residual = 0, No Iterations 0
Saturation b:  Min(Sb) = -5.02337e-05 Max(Sb) = 0.977275
DICPCG:  Solving for p, Initial residual = 2.82418e-05, Final residual = 8.2483e-13, No Iterations 313
ExecutionTime = 466.75 s  ClockTime = 473 s

Coats CFL Number mean: 0.00136864 max: 0.0296901
deltaT = 0.00121951
Time = 4.9878

diagonal:  Solving for Sb, Initial residual = 0, Final residual = 0, No Iterations 0
Saturation b:  Min(Sb) = -5.02337e-05 Max(Sb) = 0.977277
DICPCG:  Solving for p, Initial residual = 2.82315e-05, Final residual = 8.24049e-13, No Iterations 313
ExecutionTime = 466.828 s  ClockTime = 473 s

Coats CFL Number mean: 0.00136829 max: 0.0296828
deltaT = 0.00121951
Time = 4.98902

diagonal:  Solving for Sb, Initial residual = 0, Final residual = 0, No Iterations 0
Saturation b:  Min(Sb) = -5.02337e-05 Max(Sb) = 0.977278
DICPCG:  Solving for p, Initial residual = 2.82237e-05, Final residual = 8.22412e-13, No Iterations 313
ExecutionTime = 466.922 s  ClockTime = 473 s

Coats CFL Number mean: 0.00136793 max: 0.0296755
deltaT = 0.00121951
Time = 4.99024

diagonal:  Solving for Sb, Initial residual = 0, Final residual = 0, No Iterations 0
Saturation b:  Min(Sb) = -5.02337e-05 Max(Sb) = 0.97728
DICPCG:  Solving for p, Initial residual = 2.82157e-05, Final residual = 8.2281e-13, No Iterations 313
ExecutionTime = 467.016 s  ClockTime = 473 s

Coats CFL Number mean: 0.00136757 max: 0.0296682
deltaT = 0.00121951
Time = 4.99146

diagonal:  Solving for Sb, Initial residual = 0, Final residual = 0, No Iterations 0
Saturation b:  Min(Sb) = -5.02337e-05 Max(Sb) = 0.977281
DICPCG:  Solving for p, Initial residual = 2.82073e-05, Final residual = 8.21751e-13, No Iterations 313
ExecutionTime = 467.109 s  ClockTime = 473 s

Coats CFL Number mean: 0.00136722 max: 0.0296609
deltaT = 0.00121951
Time = 4.99268

diagonal:  Solving for Sb, Initial residual = 0, Final residual = 0, No Iterations 0
Saturation b:  Min(Sb) = -5.02337e-05 Max(Sb) = 0.977283
DICPCG:  Solving for p, Initial residual = 2.81987e-05, Final residual = 8.2171e-13, No Iterations 313
ExecutionTime = 467.203 s  ClockTime = 473 s

Coats CFL Number mean: 0.00136686 max: 0.0296537
deltaT = 0.00121951
Time = 4.9939

diagonal:  Solving for Sb, Initial residual = 0, Final residual = 0, No Iterations 0
Saturation b:  Min(Sb) = -5.02337e-05 Max(Sb) = 0.977284
DICPCG:  Solving for p, Initial residual = 2.81898e-05, Final residual = 8.20233e-13, No Iterations 313
ExecutionTime = 467.281 s  ClockTime = 473 s

Coats CFL Number mean: 0.0013665 max: 0.0296464
deltaT = 0.00121951
Time = 4.99512

diagonal:  Solving for Sb, Initial residual = 0, Final residual = 0, No Iterations 0
Saturation b:  Min(Sb) = -5.02337e-05 Max(Sb) = 0.977286
DICPCG:  Solving for p, Initial residual = 2.81804e-05, Final residual = 8.19985e-13, No Iterations 313
ExecutionTime = 467.375 s  ClockTime = 473 s

Coats CFL Number mean: 0.00136614 max: 0.0296391
deltaT = 0.00121951
Time = 4.99634

diagonal:  Solving for Sb, Initial residual = 0, Final residual = 0, No Iterations 0
Saturation b:  Min(Sb) = -5.02337e-05 Max(Sb) = 0.977287
DICPCG:  Solving for p, Initial residual = 2.81706e-05, Final residual = 8.18611e-13, No Iterations 313
ExecutionTime = 467.469 s  ClockTime = 473 s

Coats CFL Number mean: 0.00136579 max: 0.0296318
deltaT = 0.00121951
Time = 4.99756

diagonal:  Solving for Sb, Initial residual = 0, Final residual = 0, No Iterations 0
Saturation b:  Min(Sb) = -5.02337e-05 Max(Sb) = 0.977289
DICPCG:  Solving for p, Initial residual = 2.8161e-05, Final residual = 8.18297e-13, No Iterations 313
ExecutionTime = 467.562 s  ClockTime = 473 s

Coats CFL Number mean: 0.00136543 max: 0.0296246
deltaT = 0.00121951
Time = 4.99878

diagonal:  Solving for Sb, Initial residual = 0, Final residual = 0, No Iterations 0
Saturation b:  Min(Sb) = -5.02337e-05 Max(Sb) = 0.97729
DICPCG:  Solving for p, Initial residual = 2.8151e-05, Final residual = 8.17635e-13, No Iterations 313
ExecutionTime = 467.641 s  ClockTime = 473 s

Coats CFL Number mean: 0.00136507 max: 0.0296173
deltaT = 0.00121951
Time = 5

diagonal:  Solving for Sb, Initial residual = 0, Final residual = 0, No Iterations 0
Saturation b:  Min(Sb) = -5.02337e-05 Max(Sb) = 0.977292
DICPCG:  Solving for p, Initial residual = 2.81407e-05, Final residual = 8.15578e-13, No Iterations 313
ExecutionTime = 467.812 s  ClockTime = 474 s

End

