/*---------------------------------------------------------------------------*\
  =========                 |
  \\      /  F ield         | OpenFOAM: The Open Source CFD Toolbox
   \\    /   O peration     | Website:  https://openfoam.org
    \\  /    A nd           | Version:  10
     \\/     M anipulation  |
\*---------------------------------------------------------------------------*/
Build  : 10-c4cf895ad8fa
Exec   : porousScalarTransportFoam
Date   : Mar 27 2025
Time   : 18:01:24
Host   : "HWLAP0350-EPS"
PID    : 3417
I/O    : uncollated
Case   : /home/ap2095/OpenFOAM/ap2095-10/run/6pitzDaily_passive_scalar_porousScalarTransportFoam_setfields_blub
nProcs : 1
sigFpe : Enabling floating point exception trapping (FOAM_SIGFPE).
fileModificationChecking : Monitoring run-time modified files using timeStampMaster (fileModificationSkew 10)
allowSystemOperations : Allowing user-supplied system call operations

// * * * * * * * * * * * * * * * * * * * * * * * * * * * * * * * * * * * * * //
Create time

Create mesh for time = 0


SIMPLE: No convergence criteria found

Reading field T

Reading field U

Reading physicalProperties

Reading diffusivity DT

Reading/calculating face flux field phi

No fvModels present
No fvConstraints present

Calculating scalar transport

Courant Number mean: 0.0693138 max: 0.263174
Time = 1e-05s

DILUPBiCGStab:  Solving for T, Initial residual = 0.0205632, Final residual = 4.26221e-07, No Iterations 2
Time = 2e-05s

DILUPBiCGStab:  Solving for T, Initial residual = 0.0162023, Final residual = 4.18129e-07, No Iterations 2
Time = 3e-05s

DILUPBiCGStab:  Solving for T, Initial residual = 0.0152238, Final residual = 4.1295e-07, No Iterations 2
Time = 4e-05s

DILUPBiCGStab:  Solving for T, Initial residual = 0.0144612, Final residual = 4.10863e-07, No Iterations 2
Time = 5e-05s

DILUPBiCGStab:  Solving for T, Initial residual = 0.0137079, Final residual = 4.10122e-07, No Iterations 2
Time = 6e-05s

DILUPBiCGStab:  Solving for T, Initial residual = 0.0130479, Final residual = 4.08821e-07, No Iterations 2
Time = 7e-05s

DILUPBiCGStab:  Solving for T, Initial residual = 0.0125056, Final residual = 4.05118e-07, No Iterations 2
Time = 8e-05s

DILUPBiCGStab:  Solving for T, Initial residual = 0.0120293, Final residual = 3.98954e-07, No Iterations 2
Time = 9e-05s

DILUPBiCGStab:  Solving for T, Initial residual = 0.0116056, Final residual = 3.90764e-07, No Iterations 2
Time = 0.0001s

DILUPBiCGStab:  Solving for T, Initial residual = 0.0113086, Final residual = 3.81955e-07, No Iterations 2
Time = 0.00011s

DILUPBiCGStab:  Solving for T, Initial residual = 0.0110561, Final residual = 3.71304e-07, No Iterations 2
Time = 0.00012s

DILUPBiCGStab:  Solving for T, Initial residual = 0.0108018, Final residual = 3.61051e-07, No Iterations 2
Time = 0.00013s

DILUPBiCGStab:  Solving for T, Initial residual = 0.0105691, Final residual = 3.51425e-07, No Iterations 2
Time = 0.00014s

DILUPBiCGStab:  Solving for T, Initial residual = 0.0103737, Final residual = 3.43894e-07, No Iterations 2
Time = 0.00015s

DILUPBiCGStab:  Solving for T, Initial residual = 0.0102246, Final residual = 3.38384e-07, No Iterations 2
Time = 0.00016s

DILUPBiCGStab:  Solving for T, Initial residual = 0.0100865, Final residual = 3.34175e-07, No Iterations 2
Time = 0.00017s

DILUPBiCGStab:  Solving for T, Initial residual = 0.00994854, Final residual = 3.31329e-07, No Iterations 2
Time = 0.00018s

DILUPBiCGStab:  Solving for T, Initial residual = 0.00983664, Final residual = 3.29625e-07, No Iterations 2
Time = 0.00019s

DILUPBiCGStab:  Solving for T, Initial residual = 0.00974834, Final residual = 3.29022e-07, No Iterations 2
Time = 0.0002s

DILUPBiCGStab:  Solving for T, Initial residual = 0.00965582, Final residual = 3.29215e-07, No Iterations 2
Time = 0.00021s

DILUPBiCGStab:  Solving for T, Initial residual = 0.00957689, Final residual = 3.30218e-07, No Iterations 2
Time = 0.00022s

DILUPBiCGStab:  Solving for T, Initial residual = 0.00951479, Final residual = 3.31009e-07, No Iterations 2
Time = 0.00023s

DILUPBiCGStab:  Solving for T, Initial residual = 0.00945864, Final residual = 3.31352e-07, No Iterations 2
Time = 0.00024s

DILUPBiCGStab:  Solving for T, Initial residual = 0.00940075, Final residual = 3.31399e-07, No Iterations 2
Time = 0.00025s

DILUPBiCGStab:  Solving for T, Initial residual = 0.00935754, Final residual = 3.30788e-07, No Iterations 2
Time = 0.00026s

DILUPBiCGStab:  Solving for T, Initial residual = 0.00931792, Final residual = 3.2989e-07, No Iterations 2
Time = 0.00027s

DILUPBiCGStab:  Solving for T, Initial residual = 0.00928198, Final residual = 3.28697e-07, No Iterations 2
Time = 0.00028s

DILUPBiCGStab:  Solving for T, Initial residual = 0.00924808, Final residual = 3.27625e-07, No Iterations 2
Time = 0.00029s

DILUPBiCGStab:  Solving for T, Initial residual = 0.0092233, Final residual = 3.26728e-07, No Iterations 2
Time = 0.0003s

DILUPBiCGStab:  Solving for T, Initial residual = 0.00919579, Final residual = 3.26044e-07, No Iterations 2
Time = 0.00031s

DILUPBiCGStab:  Solving for T, Initial residual = 0.00917442, Final residual = 3.25627e-07, No Iterations 2
Time = 0.00032s

DILUPBiCGStab:  Solving for T, Initial residual = 0.00915358, Final residual = 3.2561e-07, No Iterations 2
Time = 0.00033s

DILUPBiCGStab:  Solving for T, Initial residual = 0.0091351, Final residual = 3.25964e-07, No Iterations 2
Time = 0.00034s

DILUPBiCGStab:  Solving for T, Initial residual = 0.00911787, Final residual = 3.2662e-07, No Iterations 2
Time = 0.00035s

DILUPBiCGStab:  Solving for T, Initial residual = 0.00910391, Final residual = 3.27627e-07, No Iterations 2
Time = 0.00036s

DILUPBiCGStab:  Solving for T, Initial residual = 0.00908794, Final residual = 3.28983e-07, No Iterations 2
Time = 0.00037s

DILUPBiCGStab:  Solving for T, Initial residual = 0.00907699, Final residual = 3.30817e-07, No Iterations 2
Time = 0.00038s

DILUPBiCGStab:  Solving for T, Initial residual = 0.00906493, Final residual = 3.33093e-07, No Iterations 2
Time = 0.00039s

DILUPBiCGStab:  Solving for T, Initial residual = 0.00905444, Final residual = 3.35878e-07, No Iterations 2
Time = 0.0004s

DILUPBiCGStab:  Solving for T, Initial residual = 0.00904536, Final residual = 3.39398e-07, No Iterations 2
Time = 0.00041s

DILUPBiCGStab:  Solving for T, Initial residual = 0.00903704, Final residual = 3.43704e-07, No Iterations 2
Time = 0.00042s

DILUPBiCGStab:  Solving for T, Initial residual = 0.00902996, Final residual = 3.4889e-07, No Iterations 2
Time = 0.00043s

DILUPBiCGStab:  Solving for T, Initial residual = 0.00902302, Final residual = 3.5494e-07, No Iterations 2
Time = 0.00044s

DILUPBiCGStab:  Solving for T, Initial residual = 0.00901848, Final residual = 3.62079e-07, No Iterations 2
Time = 0.00045s

DILUPBiCGStab:  Solving for T, Initial residual = 0.00901315, Final residual = 3.70209e-07, No Iterations 2
Time = 0.00046s

DILUPBiCGStab:  Solving for T, Initial residual = 0.00901042, Final residual = 3.79367e-07, No Iterations 2
Time = 0.00047s

DILUPBiCGStab:  Solving for T, Initial residual = 0.00900668, Final residual = 3.89565e-07, No Iterations 2
Time = 0.00048s

DILUPBiCGStab:  Solving for T, Initial residual = 0.00900465, Final residual = 4.00787e-07, No Iterations 2
Time = 0.00049s

DILUPBiCGStab:  Solving for T, Initial residual = 0.00900265, Final residual = 4.1298e-07, No Iterations 2
Time = 0.0005s

DILUPBiCGStab:  Solving for T, Initial residual = 0.00900127, Final residual = 4.25833e-07, No Iterations 2
Time = 0.00051s

DILUPBiCGStab:  Solving for T, Initial residual = 0.00900075, Final residual = 4.39551e-07, No Iterations 2
Time = 0.00052s

DILUPBiCGStab:  Solving for T, Initial residual = 0.00899989, Final residual = 4.53722e-07, No Iterations 2
Time = 0.00053s

DILUPBiCGStab:  Solving for T, Initial residual = 0.00900031, Final residual = 4.68166e-07, No Iterations 2
Time = 0.00054s

DILUPBiCGStab:  Solving for T, Initial residual = 0.00900099, Final residual = 4.82531e-07, No Iterations 2
Time = 0.00055s

DILUPBiCGStab:  Solving for T, Initial residual = 0.00900161, Final residual = 4.96626e-07, No Iterations 2
Time = 0.00056s

DILUPBiCGStab:  Solving for T, Initial residual = 0.00900364, Final residual = 5.10457e-07, No Iterations 2
Time = 0.00057s

DILUPBiCGStab:  Solving for T, Initial residual = 0.00900464, Final residual = 5.23712e-07, No Iterations 2
Time = 0.00058s

DILUPBiCGStab:  Solving for T, Initial residual = 0.00900734, Final residual = 5.36613e-07, No Iterations 2
Time = 0.00059s

DILUPBiCGStab:  Solving for T, Initial residual = 0.00900991, Final residual = 5.48858e-07, No Iterations 2
Time = 0.0006s

DILUPBiCGStab:  Solving for T, Initial residual = 0.00901245, Final residual = 5.60284e-07, No Iterations 2
Time = 0.00061s

DILUPBiCGStab:  Solving for T, Initial residual = 0.00901641, Final residual = 5.70738e-07, No Iterations 2
Time = 0.00062s

DILUPBiCGStab:  Solving for T, Initial residual = 0.00901948, Final residual = 5.8079e-07, No Iterations 2
Time = 0.00063s

DILUPBiCGStab:  Solving for T, Initial residual = 0.00902353, Final residual = 5.89845e-07, No Iterations 2
Time = 0.00064s

DILUPBiCGStab:  Solving for T, Initial residual = 0.00902743, Final residual = 5.98326e-07, No Iterations 2
Time = 0.00065s

DILUPBiCGStab:  Solving for T, Initial residual = 0.0090315, Final residual = 6.06089e-07, No Iterations 2
Time = 0.00066s

DILUPBiCGStab:  Solving for T, Initial residual = 0.00903612, Final residual = 6.1273e-07, No Iterations 2
Time = 0.00067s

DILUPBiCGStab:  Solving for T, Initial residual = 0.00904028, Final residual = 6.18655e-07, No Iterations 2
Time = 0.00068s

DILUPBiCGStab:  Solving for T, Initial residual = 0.00904533, Final residual = 6.23003e-07, No Iterations 2
Time = 0.00069s

DILUPBiCGStab:  Solving for T, Initial residual = 0.00905008, Final residual = 6.26359e-07, No Iterations 2
Time = 0.0007s

DILUPBiCGStab:  Solving for T, Initial residual = 0.00905493, Final residual = 6.28438e-07, No Iterations 2
Time = 0.00071s

DILUPBiCGStab:  Solving for T, Initial residual = 0.00905984, Final residual = 6.29027e-07, No Iterations 2
Time = 0.00072s

DILUPBiCGStab:  Solving for T, Initial residual = 0.00906465, Final residual = 6.28287e-07, No Iterations 2
Time = 0.00073s

DILUPBiCGStab:  Solving for T, Initial residual = 0.00906987, Final residual = 6.2669e-07, No Iterations 2
Time = 0.00074s

DILUPBiCGStab:  Solving for T, Initial residual = 0.00907409, Final residual = 6.23626e-07, No Iterations 2
Time = 0.00075s

DILUPBiCGStab:  Solving for T, Initial residual = 0.00907889, Final residual = 6.18696e-07, No Iterations 2
Time = 0.00076s

DILUPBiCGStab:  Solving for T, Initial residual = 0.0090841, Final residual = 6.12399e-07, No Iterations 2
Time = 0.00077s

DILUPBiCGStab:  Solving for T, Initial residual = 0.00908784, Final residual = 6.05336e-07, No Iterations 2
Time = 0.00078s

DILUPBiCGStab:  Solving for T, Initial residual = 0.00909233, Final residual = 5.97995e-07, No Iterations 2
Time = 0.00079s

DILUPBiCGStab:  Solving for T, Initial residual = 0.0090962, Final residual = 5.90205e-07, No Iterations 2
Time = 0.0008s

DILUPBiCGStab:  Solving for T, Initial residual = 0.00909945, Final residual = 5.82235e-07, No Iterations 2
Time = 0.00081s

DILUPBiCGStab:  Solving for T, Initial residual = 0.00910315, Final residual = 5.74566e-07, No Iterations 2
Time = 0.00082s

DILUPBiCGStab:  Solving for T, Initial residual = 0.00910579, Final residual = 5.66162e-07, No Iterations 2
Time = 0.00083s

DILUPBiCGStab:  Solving for T, Initial residual = 0.00910785, Final residual = 5.57389e-07, No Iterations 2
Time = 0.00084s

DILUPBiCGStab:  Solving for T, Initial residual = 0.00911017, Final residual = 5.47997e-07, No Iterations 2
Time = 0.00085s

DILUPBiCGStab:  Solving for T, Initial residual = 0.00911182, Final residual = 5.38232e-07, No Iterations 2
Time = 0.00086s

DILUPBiCGStab:  Solving for T, Initial residual = 0.00911267, Final residual = 5.27948e-07, No Iterations 2
Time = 0.00087s

DILUPBiCGStab:  Solving for T, Initial residual = 0.00911339, Final residual = 5.17407e-07, No Iterations 2
Time = 0.00088s

DILUPBiCGStab:  Solving for T, Initial residual = 0.0091132, Final residual = 5.06672e-07, No Iterations 2
Time = 0.00089s

DILUPBiCGStab:  Solving for T, Initial residual = 0.00911304, Final residual = 4.96015e-07, No Iterations 2
Time = 0.0009s

DILUPBiCGStab:  Solving for T, Initial residual = 0.00911129, Final residual = 4.85629e-07, No Iterations 2
Time = 0.00091s

DILUPBiCGStab:  Solving for T, Initial residual = 0.00910946, Final residual = 4.75222e-07, No Iterations 2
Time = 0.00092s

DILUPBiCGStab:  Solving for T, Initial residual = 0.00910752, Final residual = 4.65022e-07, No Iterations 2
Time = 0.00093s

DILUPBiCGStab:  Solving for T, Initial residual = 0.00910377, Final residual = 4.55002e-07, No Iterations 2
Time = 0.00094s

DILUPBiCGStab:  Solving for T, Initial residual = 0.00910042, Final residual = 4.45395e-07, No Iterations 2
Time = 0.00095s

DILUPBiCGStab:  Solving for T, Initial residual = 0.00909597, Final residual = 4.36186e-07, No Iterations 2
Time = 0.00096s

DILUPBiCGStab:  Solving for T, Initial residual = 0.00909074, Final residual = 4.27372e-07, No Iterations 2
Time = 0.00097s

DILUPBiCGStab:  Solving for T, Initial residual = 0.00908551, Final residual = 4.18774e-07, No Iterations 2
Time = 0.00098s

DILUPBiCGStab:  Solving for T, Initial residual = 0.00907896, Final residual = 4.10755e-07, No Iterations 2
Time = 0.00099s

DILUPBiCGStab:  Solving for T, Initial residual = 0.00907257, Final residual = 4.03296e-07, No Iterations 2
Time = 0.001s

DILUPBiCGStab:  Solving for T, Initial residual = 0.00906493, Final residual = 3.96618e-07, No Iterations 2
Time = 0.00101s

DILUPBiCGStab:  Solving for T, Initial residual = 0.00905649, Final residual = 3.90706e-07, No Iterations 2
Time = 0.00102s

DILUPBiCGStab:  Solving for T, Initial residual = 0.00904822, Final residual = 3.85989e-07, No Iterations 2
Time = 0.00103s

DILUPBiCGStab:  Solving for T, Initial residual = 0.00903824, Final residual = 3.82694e-07, No Iterations 2
Time = 0.00104s

DILUPBiCGStab:  Solving for T, Initial residual = 0.00902924, Final residual = 3.80819e-07, No Iterations 2
Time = 0.00105s

DILUPBiCGStab:  Solving for T, Initial residual = 0.00901844, Final residual = 3.80346e-07, No Iterations 2
Time = 0.00106s

DILUPBiCGStab:  Solving for T, Initial residual = 0.00900783, Final residual = 3.81071e-07, No Iterations 2
Time = 0.00107s

DILUPBiCGStab:  Solving for T, Initial residual = 0.00899649, Final residual = 3.82728e-07, No Iterations 2
Time = 0.00108s

DILUPBiCGStab:  Solving for T, Initial residual = 0.00898478, Final residual = 3.85267e-07, No Iterations 2
Time = 0.00109s

DILUPBiCGStab:  Solving for T, Initial residual = 0.00897261, Final residual = 3.88718e-07, No Iterations 2
Time = 0.0011s

DILUPBiCGStab:  Solving for T, Initial residual = 0.00896022, Final residual = 3.92872e-07, No Iterations 2
Time = 0.00111s

DILUPBiCGStab:  Solving for T, Initial residual = 0.00894709, Final residual = 3.97615e-07, No Iterations 2
Time = 0.00112s

DILUPBiCGStab:  Solving for T, Initial residual = 0.00893438, Final residual = 4.02849e-07, No Iterations 2
Time = 0.00113s

DILUPBiCGStab:  Solving for T, Initial residual = 0.0089205, Final residual = 4.08439e-07, No Iterations 2
Time = 0.00114s

DILUPBiCGStab:  Solving for T, Initial residual = 0.00890725, Final residual = 4.14684e-07, No Iterations 2
Time = 0.00115s

DILUPBiCGStab:  Solving for T, Initial residual = 0.00889179, Final residual = 4.21308e-07, No Iterations 2
Time = 0.00116s

DILUPBiCGStab:  Solving for T, Initial residual = 0.00887875, Final residual = 4.28131e-07, No Iterations 2
Time = 0.00117s

DILUPBiCGStab:  Solving for T, Initial residual = 0.00886275, Final residual = 4.34877e-07, No Iterations 2
Time = 0.00118s

DILUPBiCGStab:  Solving for T, Initial residual = 0.00884956, Final residual = 4.41271e-07, No Iterations 2
Time = 0.00119s

DILUPBiCGStab:  Solving for T, Initial residual = 0.00883424, Final residual = 4.47559e-07, No Iterations 2
Time = 0.0012s

DILUPBiCGStab:  Solving for T, Initial residual = 0.0088192, Final residual = 4.5377e-07, No Iterations 2
Time = 0.00121s

DILUPBiCGStab:  Solving for T, Initial residual = 0.00880413, Final residual = 4.59538e-07, No Iterations 2
Time = 0.00122s

DILUPBiCGStab:  Solving for T, Initial residual = 0.00878694, Final residual = 4.64789e-07, No Iterations 2
Time = 0.00123s

DILUPBiCGStab:  Solving for T, Initial residual = 0.00877252, Final residual = 4.69144e-07, No Iterations 2
Time = 0.00124s

DILUPBiCGStab:  Solving for T, Initial residual = 0.00875645, Final residual = 4.72926e-07, No Iterations 2
Time = 0.00125s

DILUPBiCGStab:  Solving for T, Initial residual = 0.00874149, Final residual = 4.76285e-07, No Iterations 2
Time = 0.00126s

DILUPBiCGStab:  Solving for T, Initial residual = 0.00872684, Final residual = 4.78961e-07, No Iterations 2
Time = 0.00127s

DILUPBiCGStab:  Solving for T, Initial residual = 0.00870917, Final residual = 4.80473e-07, No Iterations 2
Time = 0.00128s

DILUPBiCGStab:  Solving for T, Initial residual = 0.00869448, Final residual = 4.8076e-07, No Iterations 2
Time = 0.00129s

DILUPBiCGStab:  Solving for T, Initial residual = 0.0086793, Final residual = 4.80084e-07, No Iterations 2
Time = 0.0013s

DILUPBiCGStab:  Solving for T, Initial residual = 0.00866199, Final residual = 4.78315e-07, No Iterations 2
Time = 0.00131s

DILUPBiCGStab:  Solving for T, Initial residual = 0.00864757, Final residual = 4.75524e-07, No Iterations 2
Time = 0.00132s

DILUPBiCGStab:  Solving for T, Initial residual = 0.00863107, Final residual = 4.71652e-07, No Iterations 2
Time = 0.00133s

DILUPBiCGStab:  Solving for T, Initial residual = 0.00861489, Final residual = 4.67247e-07, No Iterations 2
Time = 0.00134s

DILUPBiCGStab:  Solving for T, Initial residual = 0.0086005, Final residual = 4.62305e-07, No Iterations 2
Time = 0.00135s

DILUPBiCGStab:  Solving for T, Initial residual = 0.00858371, Final residual = 4.56722e-07, No Iterations 2
Time = 0.00136s

DILUPBiCGStab:  Solving for T, Initial residual = 0.00856801, Final residual = 4.50714e-07, No Iterations 2
Time = 0.00137s

DILUPBiCGStab:  Solving for T, Initial residual = 0.0085536, Final residual = 4.44208e-07, No Iterations 2
Time = 0.00138s

DILUPBiCGStab:  Solving for T, Initial residual = 0.00853645, Final residual = 4.37155e-07, No Iterations 2
Time = 0.00139s

DILUPBiCGStab:  Solving for T, Initial residual = 0.00852216, Final residual = 4.29521e-07, No Iterations 2
Time = 0.0014s

DILUPBiCGStab:  Solving for T, Initial residual = 0.00850844, Final residual = 4.21264e-07, No Iterations 2
Time = 0.00141s

DILUPBiCGStab:  Solving for T, Initial residual = 0.0084917, Final residual = 4.12358e-07, No Iterations 2
Time = 0.00142s

DILUPBiCGStab:  Solving for T, Initial residual = 0.00847814, Final residual = 4.02994e-07, No Iterations 2
Time = 0.00143s

DILUPBiCGStab:  Solving for T, Initial residual = 0.00846526, Final residual = 3.93326e-07, No Iterations 2
Time = 0.00144s

DILUPBiCGStab:  Solving for T, Initial residual = 0.00844954, Final residual = 3.83265e-07, No Iterations 2
Time = 0.00145s

DILUPBiCGStab:  Solving for T, Initial residual = 0.00843676, Final residual = 3.7294e-07, No Iterations 2
Time = 0.00146s

DILUPBiCGStab:  Solving for T, Initial residual = 0.00842502, Final residual = 3.62375e-07, No Iterations 2
Time = 0.00147s

DILUPBiCGStab:  Solving for T, Initial residual = 0.00841097, Final residual = 3.51746e-07, No Iterations 2
Time = 0.00148s

DILUPBiCGStab:  Solving for T, Initial residual = 0.0083995, Final residual = 3.41055e-07, No Iterations 2
Time = 0.00149s

DILUPBiCGStab:  Solving for T, Initial residual = 0.00838942, Final residual = 3.30312e-07, No Iterations 2
Time = 0.0015s

DILUPBiCGStab:  Solving for T, Initial residual = 0.00837767, Final residual = 3.19591e-07, No Iterations 2
Time = 0.00151s

DILUPBiCGStab:  Solving for T, Initial residual = 0.00836633, Final residual = 3.08964e-07, No Iterations 2
Time = 0.00152s

DILUPBiCGStab:  Solving for T, Initial residual = 0.00835745, Final residual = 2.98443e-07, No Iterations 2
Time = 0.00153s

DILUPBiCGStab:  Solving for T, Initial residual = 0.00834762, Final residual = 2.88058e-07, No Iterations 2
Time = 0.00154s

DILUPBiCGStab:  Solving for T, Initial residual = 0.00833654, Final residual = 2.77884e-07, No Iterations 2
Time = 0.00155s

DILUPBiCGStab:  Solving for T, Initial residual = 0.00832876, Final residual = 2.67899e-07, No Iterations 2
Time = 0.00156s

DILUPBiCGStab:  Solving for T, Initial residual = 0.00832066, Final residual = 2.58092e-07, No Iterations 2
Time = 0.00157s

DILUPBiCGStab:  Solving for T, Initial residual = 0.00830951, Final residual = 2.48543e-07, No Iterations 2
Time = 0.00158s

DILUPBiCGStab:  Solving for T, Initial residual = 0.00830225, Final residual = 2.3924e-07, No Iterations 2
Time = 0.00159s

DILUPBiCGStab:  Solving for T, Initial residual = 0.0082954, Final residual = 2.30164e-07, No Iterations 2
Time = 0.0016s

DILUPBiCGStab:  Solving for T, Initial residual = 0.00828598, Final residual = 2.21288e-07, No Iterations 2
Time = 0.00161s

DILUPBiCGStab:  Solving for T, Initial residual = 0.00827776, Final residual = 2.1271e-07, No Iterations 2
Time = 0.00162s

DILUPBiCGStab:  Solving for T, Initial residual = 0.00827201, Final residual = 2.04424e-07, No Iterations 2
Time = 0.00163s

DILUPBiCGStab:  Solving for T, Initial residual = 0.00826429, Final residual = 1.96363e-07, No Iterations 2
Time = 0.00164s

DILUPBiCGStab:  Solving for T, Initial residual = 0.00825515, Final residual = 1.88578e-07, No Iterations 2
Time = 0.00165s

DILUPBiCGStab:  Solving for T, Initial residual = 0.00824948, Final residual = 1.81057e-07, No Iterations 2
Time = 0.00166s

DILUPBiCGStab:  Solving for T, Initial residual = 0.00824318, Final residual = 1.73804e-07, No Iterations 2
Time = 0.00167s

DILUPBiCGStab:  Solving for T, Initial residual = 0.00823425, Final residual = 1.66845e-07, No Iterations 2
Time = 0.00168s

DILUPBiCGStab:  Solving for T, Initial residual = 0.0082277, Final residual = 1.60154e-07, No Iterations 2
Time = 0.00169s

DILUPBiCGStab:  Solving for T, Initial residual = 0.00822234, Final residual = 1.53694e-07, No Iterations 2
Time = 0.0017s

DILUPBiCGStab:  Solving for T, Initial residual = 0.00821476, Final residual = 1.47452e-07, No Iterations 2
Time = 0.00171s

DILUPBiCGStab:  Solving for T, Initial residual = 0.00820597, Final residual = 1.41491e-07, No Iterations 2
Time = 0.00172s

DILUPBiCGStab:  Solving for T, Initial residual = 0.00820098, Final residual = 1.35742e-07, No Iterations 2
Time = 0.00173s

DILUPBiCGStab:  Solving for T, Initial residual = 0.00819505, Final residual = 1.30204e-07, No Iterations 2
Time = 0.00174s

DILUPBiCGStab:  Solving for T, Initial residual = 0.00818613, Final residual = 1.24891e-07, No Iterations 2
Time = 0.00175s

DILUPBiCGStab:  Solving for T, Initial residual = 0.00817935, Final residual = 1.19797e-07, No Iterations 2
Time = 0.00176s

DILUPBiCGStab:  Solving for T, Initial residual = 0.00817445, Final residual = 1.14903e-07, No Iterations 2
Time = 0.00177s

DILUPBiCGStab:  Solving for T, Initial residual = 0.00816728, Final residual = 1.10219e-07, No Iterations 2
Time = 0.00178s

DILUPBiCGStab:  Solving for T, Initial residual = 0.00815847, Final residual = 1.05758e-07, No Iterations 2
Time = 0.00179s

DILUPBiCGStab:  Solving for T, Initial residual = 0.00815315, Final residual = 1.01479e-07, No Iterations 2
Time = 0.0018s

DILUPBiCGStab:  Solving for T, Initial residual = 0.00814758, Final residual = 9.73808e-08, No Iterations 2
Time = 0.00181s

DILUPBiCGStab:  Solving for T, Initial residual = 0.00813983, Final residual = 9.34667e-08, No Iterations 2
Time = 0.00182s

DILUPBiCGStab:  Solving for T, Initial residual = 0.00813218, Final residual = 8.97674e-08, No Iterations 2
Time = 0.00183s

DILUPBiCGStab:  Solving for T, Initial residual = 0.00812757, Final residual = 8.62228e-08, No Iterations 2
Time = 0.00184s

DILUPBiCGStab:  Solving for T, Initial residual = 0.00812091, Final residual = 8.28259e-08, No Iterations 2
Time = 0.00185s

DILUPBiCGStab:  Solving for T, Initial residual = 0.00811308, Final residual = 7.95921e-08, No Iterations 2
Time = 0.00186s

DILUPBiCGStab:  Solving for T, Initial residual = 0.00810655, Final residual = 7.65206e-08, No Iterations 2
Time = 0.00187s

DILUPBiCGStab:  Solving for T, Initial residual = 0.0081013, Final residual = 7.35922e-08, No Iterations 2
Time = 0.00188s

DILUPBiCGStab:  Solving for T, Initial residual = 0.00809477, Final residual = 7.08008e-08, No Iterations 2
Time = 0.00189s

DILUPBiCGStab:  Solving for T, Initial residual = 0.00808635, Final residual = 6.81821e-08, No Iterations 2
Time = 0.0019s

DILUPBiCGStab:  Solving for T, Initial residual = 0.00808155, Final residual = 6.57034e-08, No Iterations 2
Time = 0.00191s

DILUPBiCGStab:  Solving for T, Initial residual = 0.0080762, Final residual = 6.33824e-08, No Iterations 2
Time = 0.00192s

DILUPBiCGStab:  Solving for T, Initial residual = 0.00806946, Final residual = 6.12072e-08, No Iterations 2
Time = 0.00193s

DILUPBiCGStab:  Solving for T, Initial residual = 0.00806205, Final residual = 5.91717e-08, No Iterations 2
Time = 0.00194s

DILUPBiCGStab:  Solving for T, Initial residual = 0.00805724, Final residual = 5.72597e-08, No Iterations 2
Time = 0.00195s

DILUPBiCGStab:  Solving for T, Initial residual = 0.00805167, Final residual = 5.54673e-08, No Iterations 2
Time = 0.00196s

DILUPBiCGStab:  Solving for T, Initial residual = 0.00804541, Final residual = 5.38137e-08, No Iterations 2
Time = 0.00197s

DILUPBiCGStab:  Solving for T, Initial residual = 0.00803857, Final residual = 5.22835e-08, No Iterations 2
Time = 0.00198s

DILUPBiCGStab:  Solving for T, Initial residual = 0.00803403, Final residual = 5.08593e-08, No Iterations 2
Time = 0.00199s

DILUPBiCGStab:  Solving for T, Initial residual = 0.00802798, Final residual = 4.95518e-08, No Iterations 2
Time = 0.002s

DILUPBiCGStab:  Solving for T, Initial residual = 0.00802085, Final residual = 4.83757e-08, No Iterations 2
Time = 0.00201s

DILUPBiCGStab:  Solving for T, Initial residual = 0.0080155, Final residual = 4.73042e-08, No Iterations 2
Time = 0.00202s

DILUPBiCGStab:  Solving for T, Initial residual = 0.00801086, Final residual = 4.6344e-08, No Iterations 2
Time = 0.00203s

DILUPBiCGStab:  Solving for T, Initial residual = 0.00800572, Final residual = 4.54833e-08, No Iterations 2
Time = 0.00204s

DILUPBiCGStab:  Solving for T, Initial residual = 0.00799829, Final residual = 4.47346e-08, No Iterations 2
Time = 0.00205s

DILUPBiCGStab:  Solving for T, Initial residual = 0.00799371, Final residual = 4.40814e-08, No Iterations 2
Time = 0.00206s

DILUPBiCGStab:  Solving for T, Initial residual = 0.00798885, Final residual = 4.35178e-08, No Iterations 2
Time = 0.00207s

DILUPBiCGStab:  Solving for T, Initial residual = 0.00798313, Final residual = 4.30499e-08, No Iterations 2
Time = 0.00208s

DILUPBiCGStab:  Solving for T, Initial residual = 0.00797646, Final residual = 4.26836e-08, No Iterations 2
Time = 0.00209s

DILUPBiCGStab:  Solving for T, Initial residual = 0.00797182, Final residual = 4.23971e-08, No Iterations 2
Time = 0.0021s

DILUPBiCGStab:  Solving for T, Initial residual = 0.00796695, Final residual = 4.21786e-08, No Iterations 2
Time = 0.00211s

DILUPBiCGStab:  Solving for T, Initial residual = 0.00796174, Final residual = 4.20498e-08, No Iterations 2
Time = 0.00212s

DILUPBiCGStab:  Solving for T, Initial residual = 0.00795535, Final residual = 4.19889e-08, No Iterations 2
Time = 0.00213s

DILUPBiCGStab:  Solving for T, Initial residual = 0.0079509, Final residual = 4.19898e-08, No Iterations 2
Time = 0.00214s

DILUPBiCGStab:  Solving for T, Initial residual = 0.00794652, Final residual = 4.20605e-08, No Iterations 2
Time = 0.00215s

DILUPBiCGStab:  Solving for T, Initial residual = 0.00794048, Final residual = 4.21909e-08, No Iterations 2
Time = 0.00216s

DILUPBiCGStab:  Solving for T, Initial residual = 0.00793425, Final residual = 4.23778e-08, No Iterations 2
Time = 0.00217s

DILUPBiCGStab:  Solving for T, Initial residual = 0.00793016, Final residual = 4.25999e-08, No Iterations 2
Time = 0.00218s

DILUPBiCGStab:  Solving for T, Initial residual = 0.00792636, Final residual = 4.28615e-08, No Iterations 2
Time = 0.00219s

DILUPBiCGStab:  Solving for T, Initial residual = 0.00791966, Final residual = 4.31784e-08, No Iterations 2
Time = 0.0022s

DILUPBiCGStab:  Solving for T, Initial residual = 0.00791491, Final residual = 4.35232e-08, No Iterations 2
Time = 0.00221s

DILUPBiCGStab:  Solving for T, Initial residual = 0.00791062, Final residual = 4.39064e-08, No Iterations 2
Time = 0.00222s

DILUPBiCGStab:  Solving for T, Initial residual = 0.00790577, Final residual = 4.43149e-08, No Iterations 2
Time = 0.00223s

DILUPBiCGStab:  Solving for T, Initial residual = 0.00789902, Final residual = 4.47612e-08, No Iterations 2
Time = 0.00224s

DILUPBiCGStab:  Solving for T, Initial residual = 0.00789487, Final residual = 4.52174e-08, No Iterations 2
Time = 0.00225s

DILUPBiCGStab:  Solving for T, Initial residual = 0.00789063, Final residual = 4.56785e-08, No Iterations 2
Time = 0.00226s

DILUPBiCGStab:  Solving for T, Initial residual = 0.00788475, Final residual = 4.61386e-08, No Iterations 2
Time = 0.00227s

DILUPBiCGStab:  Solving for T, Initial residual = 0.00787902, Final residual = 4.66353e-08, No Iterations 2
Time = 0.00228s

DILUPBiCGStab:  Solving for T, Initial residual = 0.00787569, Final residual = 4.71227e-08, No Iterations 2
Time = 0.00229s

DILUPBiCGStab:  Solving for T, Initial residual = 0.00787042, Final residual = 4.76078e-08, No Iterations 2
Time = 0.0023s

DILUPBiCGStab:  Solving for T, Initial residual = 0.00786438, Final residual = 4.80857e-08, No Iterations 2
Time = 0.00231s

DILUPBiCGStab:  Solving for T, Initial residual = 0.00786031, Final residual = 4.85908e-08, No Iterations 2
Time = 0.00232s

DILUPBiCGStab:  Solving for T, Initial residual = 0.00785569, Final residual = 4.90998e-08, No Iterations 2
Time = 0.00233s

DILUPBiCGStab:  Solving for T, Initial residual = 0.00785072, Final residual = 4.95952e-08, No Iterations 2
Time = 0.00234s

DILUPBiCGStab:  Solving for T, Initial residual = 0.00784439, Final residual = 5.00744e-08, No Iterations 2
Time = 0.00235s

DILUPBiCGStab:  Solving for T, Initial residual = 0.00784142, Final residual = 5.05552e-08, No Iterations 2
Time = 0.00236s

DILUPBiCGStab:  Solving for T, Initial residual = 0.00783586, Final residual = 5.10338e-08, No Iterations 2
Time = 0.00237s

DILUPBiCGStab:  Solving for T, Initial residual = 0.00783019, Final residual = 5.14918e-08, No Iterations 2
Time = 0.00238s

DILUPBiCGStab:  Solving for T, Initial residual = 0.00782519, Final residual = 5.19229e-08, No Iterations 2
Time = 0.00239s

DILUPBiCGStab:  Solving for T, Initial residual = 0.007821, Final residual = 5.23005e-08, No Iterations 2
Time = 0.0024s

DILUPBiCGStab:  Solving for T, Initial residual = 0.00781635, Final residual = 5.26535e-08, No Iterations 2
Time = 0.00241s

DILUPBiCGStab:  Solving for T, Initial residual = 0.00781006, Final residual = 5.2989e-08, No Iterations 2
Time = 0.00242s

DILUPBiCGStab:  Solving for T, Initial residual = 0.00780648, Final residual = 5.33177e-08, No Iterations 2
Time = 0.00243s

DILUPBiCGStab:  Solving for T, Initial residual = 0.00780297, Final residual = 5.35886e-08, No Iterations 2
Time = 0.00244s

DILUPBiCGStab:  Solving for T, Initial residual = 0.00779736, Final residual = 5.38176e-08, No Iterations 2
Time = 0.00245s

DILUPBiCGStab:  Solving for T, Initial residual = 0.00779179, Final residual = 5.40259e-08, No Iterations 2
Time = 0.00246s

DILUPBiCGStab:  Solving for T, Initial residual = 0.00778895, Final residual = 5.41966e-08, No Iterations 2
Time = 0.00247s

DILUPBiCGStab:  Solving for T, Initial residual = 0.00778455, Final residual = 5.43185e-08, No Iterations 2
Time = 0.00248s

DILUPBiCGStab:  Solving for T, Initial residual = 0.00777821, Final residual = 5.43882e-08, No Iterations 2
Time = 0.00249s

DILUPBiCGStab:  Solving for T, Initial residual = 0.00777466, Final residual = 5.44193e-08, No Iterations 2
Time = 0.0025s

DILUPBiCGStab:  Solving for T, Initial residual = 0.00777041, Final residual = 5.444e-08, No Iterations 2
Time = 0.00251s

DILUPBiCGStab:  Solving for T, Initial residual = 0.00776493, Final residual = 5.43985e-08, No Iterations 2
Time = 0.00252s

DILUPBiCGStab:  Solving for T, Initial residual = 0.00776043, Final residual = 5.42899e-08, No Iterations 2
Time = 0.00253s

DILUPBiCGStab:  Solving for T, Initial residual = 0.00775673, Final residual = 5.41532e-08, No Iterations 2
Time = 0.00254s

DILUPBiCGStab:  Solving for T, Initial residual = 0.00775149, Final residual = 5.39833e-08, No Iterations 2
Time = 0.00255s

DILUPBiCGStab:  Solving for T, Initial residual = 0.00774596, Final residual = 5.37781e-08, No Iterations 2
Time = 0.00256s

DILUPBiCGStab:  Solving for T, Initial residual = 0.00774262, Final residual = 5.3551e-08, No Iterations 2
Time = 0.00257s

DILUPBiCGStab:  Solving for T, Initial residual = 0.00773908, Final residual = 5.33051e-08, No Iterations 2
Time = 0.00258s

DILUPBiCGStab:  Solving for T, Initial residual = 0.00773319, Final residual = 5.30404e-08, No Iterations 2
Time = 0.00259s

DILUPBiCGStab:  Solving for T, Initial residual = 0.00772972, Final residual = 5.27271e-08, No Iterations 2
Time = 0.0026s

DILUPBiCGStab:  Solving for T, Initial residual = 0.00772641, Final residual = 5.23557e-08, No Iterations 2
Time = 0.00261s

DILUPBiCGStab:  Solving for T, Initial residual = 0.0077209, Final residual = 5.19446e-08, No Iterations 2
Time = 0.00262s

DILUPBiCGStab:  Solving for T, Initial residual = 0.00771587, Final residual = 5.15109e-08, No Iterations 2
Time = 0.00263s

DILUPBiCGStab:  Solving for T, Initial residual = 0.00771283, Final residual = 5.1075e-08, No Iterations 2
Time = 0.00264s

DILUPBiCGStab:  Solving for T, Initial residual = 0.00770787, Final residual = 5.0587e-08, No Iterations 2
Time = 0.00265s

DILUPBiCGStab:  Solving for T, Initial residual = 0.00770124, Final residual = 5.00631e-08, No Iterations 2
Time = 0.00266s

DILUPBiCGStab:  Solving for T, Initial residual = 0.00769919, Final residual = 4.95463e-08, No Iterations 2
Time = 0.00267s

DILUPBiCGStab:  Solving for T, Initial residual = 0.0076959, Final residual = 4.9037e-08, No Iterations 2
Time = 0.00268s

DILUPBiCGStab:  Solving for T, Initial residual = 0.00769039, Final residual = 4.84932e-08, No Iterations 2
Time = 0.00269s

DILUPBiCGStab:  Solving for T, Initial residual = 0.00768623, Final residual = 4.79204e-08, No Iterations 2
Time = 0.0027s

DILUPBiCGStab:  Solving for T, Initial residual = 0.00768383, Final residual = 4.73359e-08, No Iterations 2
Time = 0.00271s

DILUPBiCGStab:  Solving for T, Initial residual = 0.00768006, Final residual = 4.67517e-08, No Iterations 2
Time = 0.00272s

DILUPBiCGStab:  Solving for T, Initial residual = 0.00767439, Final residual = 4.61853e-08, No Iterations 2
Time = 0.00273s

DILUPBiCGStab:  Solving for T, Initial residual = 0.00767174, Final residual = 4.56145e-08, No Iterations 2
Time = 0.00274s

DILUPBiCGStab:  Solving for T, Initial residual = 0.00766877, Final residual = 4.50266e-08, No Iterations 2
Time = 0.00275s

DILUPBiCGStab:  Solving for T, Initial residual = 0.00766333, Final residual = 4.44305e-08, No Iterations 2
Time = 0.00276s

DILUPBiCGStab:  Solving for T, Initial residual = 0.00765942, Final residual = 4.38562e-08, No Iterations 2
Time = 0.00277s

DILUPBiCGStab:  Solving for T, Initial residual = 0.00765679, Final residual = 4.329e-08, No Iterations 2
Time = 0.00278s

DILUPBiCGStab:  Solving for T, Initial residual = 0.00765342, Final residual = 4.2721e-08, No Iterations 2
Time = 0.00279s

DILUPBiCGStab:  Solving for T, Initial residual = 0.00764788, Final residual = 4.21509e-08, No Iterations 2
Time = 0.0028s

DILUPBiCGStab:  Solving for T, Initial residual = 0.00764544, Final residual = 4.15887e-08, No Iterations 2
Time = 0.00281s

DILUPBiCGStab:  Solving for T, Initial residual = 0.00764163, Final residual = 4.10454e-08, No Iterations 2
Time = 0.00282s

DILUPBiCGStab:  Solving for T, Initial residual = 0.00763696, Final residual = 4.0516e-08, No Iterations 2
Time = 0.00283s

DILUPBiCGStab:  Solving for T, Initial residual = 0.00763263, Final residual = 4.0033e-08, No Iterations 2
Time = 0.00284s

DILUPBiCGStab:  Solving for T, Initial residual = 0.00763046, Final residual = 3.95771e-08, No Iterations 2
Time = 0.00285s

DILUPBiCGStab:  Solving for T, Initial residual = 0.00762642, Final residual = 3.91937e-08, No Iterations 2
Time = 0.00286s

DILUPBiCGStab:  Solving for T, Initial residual = 0.00761983, Final residual = 3.89128e-08, No Iterations 2
Time = 0.00287s

DILUPBiCGStab:  Solving for T, Initial residual = 0.00761508, Final residual = 3.87176e-08, No Iterations 2
Time = 0.00288s

DILUPBiCGStab:  Solving for T, Initial residual = 0.00761234, Final residual = 3.86012e-08, No Iterations 2
Time = 0.00289s

DILUPBiCGStab:  Solving for T, Initial residual = 0.0076085, Final residual = 3.85799e-08, No Iterations 2
Time = 0.0029s

DILUPBiCGStab:  Solving for T, Initial residual = 0.00760234, Final residual = 3.86736e-08, No Iterations 2
Time = 0.00291s

DILUPBiCGStab:  Solving for T, Initial residual = 0.00759856, Final residual = 3.88517e-08, No Iterations 2
Time = 0.00292s

DILUPBiCGStab:  Solving for T, Initial residual = 0.00759611, Final residual = 3.9114e-08, No Iterations 2
Time = 0.00293s

DILUPBiCGStab:  Solving for T, Initial residual = 0.00759215, Final residual = 3.94953e-08, No Iterations 2
Time = 0.00294s

DILUPBiCGStab:  Solving for T, Initial residual = 0.0075853, Final residual = 3.99434e-08, No Iterations 2
Time = 0.00295s

DILUPBiCGStab:  Solving for T, Initial residual = 0.00757979, Final residual = 4.04222e-08, No Iterations 2
Time = 0.00296s

DILUPBiCGStab:  Solving for T, Initial residual = 0.00757707, Final residual = 4.09989e-08, No Iterations 2
Time = 0.00297s

DILUPBiCGStab:  Solving for T, Initial residual = 0.0075734, Final residual = 4.15766e-08, No Iterations 2
Time = 0.00298s

DILUPBiCGStab:  Solving for T, Initial residual = 0.00756785, Final residual = 4.21803e-08, No Iterations 2
Time = 0.00299s

DILUPBiCGStab:  Solving for T, Initial residual = 0.00755975, Final residual = 4.28238e-08, No Iterations 2
Time = 0.003s

DILUPBiCGStab:  Solving for T, Initial residual = 0.00755498, Final residual = 4.34483e-08, No Iterations 2
Time = 0.00301s

DILUPBiCGStab:  Solving for T, Initial residual = 0.00755152, Final residual = 4.40615e-08, No Iterations 2
Time = 0.00302s

DILUPBiCGStab:  Solving for T, Initial residual = 0.00754779, Final residual = 4.46687e-08, No Iterations 2
Time = 0.00303s

DILUPBiCGStab:  Solving for T, Initial residual = 0.00754151, Final residual = 4.52424e-08, No Iterations 2
Time = 0.00304s

DILUPBiCGStab:  Solving for T, Initial residual = 0.00753378, Final residual = 4.57505e-08, No Iterations 2
Time = 0.00305s

DILUPBiCGStab:  Solving for T, Initial residual = 0.00753016, Final residual = 4.62266e-08, No Iterations 2
Time = 0.00306s

DILUPBiCGStab:  Solving for T, Initial residual = 0.00752667, Final residual = 4.66292e-08, No Iterations 2
Time = 0.00307s

DILUPBiCGStab:  Solving for T, Initial residual = 0.00752177, Final residual = 4.69235e-08, No Iterations 2
Time = 0.00308s

DILUPBiCGStab:  Solving for T, Initial residual = 0.00751443, Final residual = 4.71647e-08, No Iterations 2
Time = 0.00309s

DILUPBiCGStab:  Solving for T, Initial residual = 0.00750589, Final residual = 4.73364e-08, No Iterations 2
Time = 0.0031s

DILUPBiCGStab:  Solving for T, Initial residual = 0.00750225, Final residual = 4.74712e-08, No Iterations 2
Time = 0.00311s

DILUPBiCGStab:  Solving for T, Initial residual = 0.00749891, Final residual = 4.75522e-08, No Iterations 2
Time = 0.00312s

DILUPBiCGStab:  Solving for T, Initial residual = 0.00749388, Final residual = 4.75633e-08, No Iterations 2
Time = 0.00313s

DILUPBiCGStab:  Solving for T, Initial residual = 0.00748642, Final residual = 4.75429e-08, No Iterations 2
Time = 0.00314s

DILUPBiCGStab:  Solving for T, Initial residual = 0.00747657, Final residual = 4.7477e-08, No Iterations 2
Time = 0.00315s

DILUPBiCGStab:  Solving for T, Initial residual = 0.00747124, Final residual = 4.74112e-08, No Iterations 2
Time = 0.00316s

DILUPBiCGStab:  Solving for T, Initial residual = 0.00746819, Final residual = 4.73403e-08, No Iterations 2
Time = 0.00317s

DILUPBiCGStab:  Solving for T, Initial residual = 0.00746411, Final residual = 4.72403e-08, No Iterations 2
Time = 0.00318s

DILUPBiCGStab:  Solving for T, Initial residual = 0.00745811, Final residual = 4.71421e-08, No Iterations 2
Time = 0.00319s

DILUPBiCGStab:  Solving for T, Initial residual = 0.00744989, Final residual = 4.70602e-08, No Iterations 2
Time = 0.0032s

DILUPBiCGStab:  Solving for T, Initial residual = 0.0074397, Final residual = 4.70081e-08, No Iterations 2
Time = 0.00321s

DILUPBiCGStab:  Solving for T, Initial residual = 0.00743438, Final residual = 4.69479e-08, No Iterations 2
Time = 0.00322s

DILUPBiCGStab:  Solving for T, Initial residual = 0.00742965, Final residual = 4.68749e-08, No Iterations 2
Time = 0.00323s

DILUPBiCGStab:  Solving for T, Initial residual = 0.00742477, Final residual = 4.68498e-08, No Iterations 2
Time = 0.00324s

DILUPBiCGStab:  Solving for T, Initial residual = 0.00741757, Final residual = 4.68775e-08, No Iterations 2
Time = 0.00325s

DILUPBiCGStab:  Solving for T, Initial residual = 0.00740883, Final residual = 4.69521e-08, No Iterations 2
Time = 0.00326s

DILUPBiCGStab:  Solving for T, Initial residual = 0.00739745, Final residual = 4.70544e-08, No Iterations 2
Time = 0.00327s

DILUPBiCGStab:  Solving for T, Initial residual = 0.00739122, Final residual = 4.71831e-08, No Iterations 2
Time = 0.00328s

DILUPBiCGStab:  Solving for T, Initial residual = 0.00738595, Final residual = 4.73004e-08, No Iterations 2
Time = 0.00329s

DILUPBiCGStab:  Solving for T, Initial residual = 0.00737988, Final residual = 4.74022e-08, No Iterations 2
Time = 0.0033s

DILUPBiCGStab:  Solving for T, Initial residual = 0.00737216, Final residual = 4.75103e-08, No Iterations 2
Time = 0.00331s

DILUPBiCGStab:  Solving for T, Initial residual = 0.00736348, Final residual = 4.76516e-08, No Iterations 2
Time = 0.00332s

DILUPBiCGStab:  Solving for T, Initial residual = 0.00735173, Final residual = 4.78094e-08, No Iterations 2
Time = 0.00333s

DILUPBiCGStab:  Solving for T, Initial residual = 0.00734236, Final residual = 4.79618e-08, No Iterations 2
Time = 0.00334s

DILUPBiCGStab:  Solving for T, Initial residual = 0.00733597, Final residual = 4.81182e-08, No Iterations 2
Time = 0.00335s

DILUPBiCGStab:  Solving for T, Initial residual = 0.0073295, Final residual = 4.82999e-08, No Iterations 2
Time = 0.00336s

DILUPBiCGStab:  Solving for T, Initial residual = 0.00732269, Final residual = 4.85053e-08, No Iterations 2
Time = 0.00337s

DILUPBiCGStab:  Solving for T, Initial residual = 0.00731542, Final residual = 4.87219e-08, No Iterations 2
Time = 0.00338s

DILUPBiCGStab:  Solving for T, Initial residual = 0.00730532, Final residual = 4.89546e-08, No Iterations 2
Time = 0.00339s

DILUPBiCGStab:  Solving for T, Initial residual = 0.00729271, Final residual = 4.92042e-08, No Iterations 2
Time = 0.0034s

DILUPBiCGStab:  Solving for T, Initial residual = 0.00728361, Final residual = 4.94685e-08, No Iterations 2
Time = 0.00341s

DILUPBiCGStab:  Solving for T, Initial residual = 0.00727468, Final residual = 4.97469e-08, No Iterations 2
Time = 0.00342s

DILUPBiCGStab:  Solving for T, Initial residual = 0.00726764, Final residual = 5.00649e-08, No Iterations 2
Time = 0.00343s

DILUPBiCGStab:  Solving for T, Initial residual = 0.00726309, Final residual = 5.04169e-08, No Iterations 2
Time = 0.00344s

DILUPBiCGStab:  Solving for T, Initial residual = 0.00725568, Final residual = 5.0808e-08, No Iterations 2
Time = 0.00345s

DILUPBiCGStab:  Solving for T, Initial residual = 0.0072448, Final residual = 5.12252e-08, No Iterations 2
Time = 0.00346s

DILUPBiCGStab:  Solving for T, Initial residual = 0.00723123, Final residual = 5.16643e-08, No Iterations 2
Time = 0.00347s

DILUPBiCGStab:  Solving for T, Initial residual = 0.00722206, Final residual = 5.21491e-08, No Iterations 2
Time = 0.00348s

DILUPBiCGStab:  Solving for T, Initial residual = 0.00721483, Final residual = 5.26672e-08, No Iterations 2
Time = 0.00349s

DILUPBiCGStab:  Solving for T, Initial residual = 0.00720788, Final residual = 5.32245e-08, No Iterations 2
Time = 0.0035s

DILUPBiCGStab:  Solving for T, Initial residual = 0.00720241, Final residual = 5.38288e-08, No Iterations 2
Time = 0.00351s

DILUPBiCGStab:  Solving for T, Initial residual = 0.00719463, Final residual = 5.44707e-08, No Iterations 2
Time = 0.00352s

DILUPBiCGStab:  Solving for T, Initial residual = 0.0071852, Final residual = 5.51516e-08, No Iterations 2
Time = 0.00353s

DILUPBiCGStab:  Solving for T, Initial residual = 0.00717416, Final residual = 5.58809e-08, No Iterations 2
Time = 0.00354s

DILUPBiCGStab:  Solving for T, Initial residual = 0.00716616, Final residual = 5.66589e-08, No Iterations 2
Time = 0.00355s

DILUPBiCGStab:  Solving for T, Initial residual = 0.00715894, Final residual = 5.7489e-08, No Iterations 2
Time = 0.00356s

DILUPBiCGStab:  Solving for T, Initial residual = 0.00715114, Final residual = 5.83754e-08, No Iterations 2
Time = 0.00357s

DILUPBiCGStab:  Solving for T, Initial residual = 0.0071439, Final residual = 5.93034e-08, No Iterations 2
Time = 0.00358s

DILUPBiCGStab:  Solving for T, Initial residual = 0.00713867, Final residual = 6.02642e-08, No Iterations 2
Time = 0.00359s

DILUPBiCGStab:  Solving for T, Initial residual = 0.0071316, Final residual = 6.12765e-08, No Iterations 2
Time = 0.0036s

DILUPBiCGStab:  Solving for T, Initial residual = 0.00712152, Final residual = 6.23475e-08, No Iterations 2
Time = 0.00361s

DILUPBiCGStab:  Solving for T, Initial residual = 0.00711244, Final residual = 6.34647e-08, No Iterations 2
Time = 0.00362s

DILUPBiCGStab:  Solving for T, Initial residual = 0.00710583, Final residual = 6.46229e-08, No Iterations 2
Time = 0.00363s

DILUPBiCGStab:  Solving for T, Initial residual = 0.00709996, Final residual = 6.58206e-08, No Iterations 2
Time = 0.00364s

DILUPBiCGStab:  Solving for T, Initial residual = 0.00709326, Final residual = 6.70693e-08, No Iterations 2
Time = 0.00365s

DILUPBiCGStab:  Solving for T, Initial residual = 0.00708642, Final residual = 6.83817e-08, No Iterations 2
Time = 0.00366s

DILUPBiCGStab:  Solving for T, Initial residual = 0.00707907, Final residual = 6.97495e-08, No Iterations 2
Time = 0.00367s

DILUPBiCGStab:  Solving for T, Initial residual = 0.00706955, Final residual = 7.11769e-08, No Iterations 2
Time = 0.00368s

DILUPBiCGStab:  Solving for T, Initial residual = 0.00706037, Final residual = 7.26592e-08, No Iterations 2
Time = 0.00369s

DILUPBiCGStab:  Solving for T, Initial residual = 0.00705447, Final residual = 7.41673e-08, No Iterations 2
Time = 0.0037s

DILUPBiCGStab:  Solving for T, Initial residual = 0.00704871, Final residual = 7.57232e-08, No Iterations 2
Time = 0.00371s

DILUPBiCGStab:  Solving for T, Initial residual = 0.00704305, Final residual = 7.73296e-08, No Iterations 2
Time = 0.00372s

DILUPBiCGStab:  Solving for T, Initial residual = 0.00703648, Final residual = 7.89898e-08, No Iterations 2
Time = 0.00373s

DILUPBiCGStab:  Solving for T, Initial residual = 0.0070298, Final residual = 8.07411e-08, No Iterations 2
Time = 0.00374s

DILUPBiCGStab:  Solving for T, Initial residual = 0.00702187, Final residual = 8.25378e-08, No Iterations 2
Time = 0.00375s

DILUPBiCGStab:  Solving for T, Initial residual = 0.00701296, Final residual = 8.43581e-08, No Iterations 2
Time = 0.00376s

DILUPBiCGStab:  Solving for T, Initial residual = 0.00700586, Final residual = 8.62261e-08, No Iterations 2
Time = 0.00377s

DILUPBiCGStab:  Solving for T, Initial residual = 0.00700051, Final residual = 8.80966e-08, No Iterations 2
Time = 0.00378s

DILUPBiCGStab:  Solving for T, Initial residual = 0.0069945, Final residual = 8.99597e-08, No Iterations 2
Time = 0.00379s

DILUPBiCGStab:  Solving for T, Initial residual = 0.00698788, Final residual = 9.17834e-08, No Iterations 2
Time = 0.0038s

DILUPBiCGStab:  Solving for T, Initial residual = 0.00698145, Final residual = 9.35516e-08, No Iterations 2
Time = 0.00381s

DILUPBiCGStab:  Solving for T, Initial residual = 0.00697512, Final residual = 9.52953e-08, No Iterations 2
Time = 0.00382s

DILUPBiCGStab:  Solving for T, Initial residual = 0.00696775, Final residual = 9.7051e-08, No Iterations 2
Time = 0.00383s

DILUPBiCGStab:  Solving for T, Initial residual = 0.00695893, Final residual = 9.87326e-08, No Iterations 2
Time = 0.00384s

DILUPBiCGStab:  Solving for T, Initial residual = 0.00695281, Final residual = 1.00353e-07, No Iterations 2
Time = 0.00385s

DILUPBiCGStab:  Solving for T, Initial residual = 0.00694712, Final residual = 1.01936e-07, No Iterations 2
Time = 0.00386s

DILUPBiCGStab:  Solving for T, Initial residual = 0.00694133, Final residual = 1.03507e-07, No Iterations 2
Time = 0.00387s

DILUPBiCGStab:  Solving for T, Initial residual = 0.00693694, Final residual = 1.05052e-07, No Iterations 2
Time = 0.00388s

DILUPBiCGStab:  Solving for T, Initial residual = 0.00693256, Final residual = 1.06512e-07, No Iterations 2
Time = 0.00389s

DILUPBiCGStab:  Solving for T, Initial residual = 0.0069258, Final residual = 1.07966e-07, No Iterations 2
Time = 0.0039s

DILUPBiCGStab:  Solving for T, Initial residual = 0.00691791, Final residual = 1.09389e-07, No Iterations 2
Time = 0.00391s

DILUPBiCGStab:  Solving for T, Initial residual = 0.00690853, Final residual = 1.10772e-07, No Iterations 2
Time = 0.00392s

DILUPBiCGStab:  Solving for T, Initial residual = 0.00690212, Final residual = 1.12107e-07, No Iterations 2
Time = 0.00393s

DILUPBiCGStab:  Solving for T, Initial residual = 0.00689668, Final residual = 1.13391e-07, No Iterations 2
Time = 0.00394s

DILUPBiCGStab:  Solving for T, Initial residual = 0.00689357, Final residual = 1.14624e-07, No Iterations 2
Time = 0.00395s

DILUPBiCGStab:  Solving for T, Initial residual = 0.00688991, Final residual = 1.15755e-07, No Iterations 2
Time = 0.00396s

DILUPBiCGStab:  Solving for T, Initial residual = 0.00688438, Final residual = 1.16801e-07, No Iterations 2
Time = 0.00397s

DILUPBiCGStab:  Solving for T, Initial residual = 0.00687769, Final residual = 1.1778e-07, No Iterations 2
Time = 0.00398s

DILUPBiCGStab:  Solving for T, Initial residual = 0.0068698, Final residual = 1.18645e-07, No Iterations 2
Time = 0.00399s

DILUPBiCGStab:  Solving for T, Initial residual = 0.00686001, Final residual = 1.19431e-07, No Iterations 2
Time = 0.004s

DILUPBiCGStab:  Solving for T, Initial residual = 0.00685485, Final residual = 1.20101e-07, No Iterations 2
Time = 0.00401s

DILUPBiCGStab:  Solving for T, Initial residual = 0.00685194, Final residual = 1.20672e-07, No Iterations 2
Time = 0.00402s

DILUPBiCGStab:  Solving for T, Initial residual = 0.0068492, Final residual = 1.211e-07, No Iterations 2
Time = 0.00403s

DILUPBiCGStab:  Solving for T, Initial residual = 0.00684586, Final residual = 1.21388e-07, No Iterations 2
Time = 0.00404s

DILUPBiCGStab:  Solving for T, Initial residual = 0.00684056, Final residual = 1.21605e-07, No Iterations 2
Time = 0.00405s

DILUPBiCGStab:  Solving for T, Initial residual = 0.00683441, Final residual = 1.21772e-07, No Iterations 2
Time = 0.00406s

DILUPBiCGStab:  Solving for T, Initial residual = 0.00682718, Final residual = 1.21844e-07, No Iterations 2
Time = 0.00407s

DILUPBiCGStab:  Solving for T, Initial residual = 0.00681933, Final residual = 1.21834e-07, No Iterations 2
Time = 0.00408s

DILUPBiCGStab:  Solving for T, Initial residual = 0.00681399, Final residual = 1.21738e-07, No Iterations 2
Time = 0.00409s

DILUPBiCGStab:  Solving for T, Initial residual = 0.0068107, Final residual = 1.21587e-07, No Iterations 2
Time = 0.0041s

DILUPBiCGStab:  Solving for T, Initial residual = 0.00680809, Final residual = 1.21398e-07, No Iterations 2
Time = 0.00411s

DILUPBiCGStab:  Solving for T, Initial residual = 0.00680447, Final residual = 1.21121e-07, No Iterations 2
Time = 0.00412s

DILUPBiCGStab:  Solving for T, Initial residual = 0.00679988, Final residual = 1.20758e-07, No Iterations 2
Time = 0.00413s

DILUPBiCGStab:  Solving for T, Initial residual = 0.00679538, Final residual = 1.20339e-07, No Iterations 2
Time = 0.00414s

DILUPBiCGStab:  Solving for T, Initial residual = 0.00678942, Final residual = 1.19885e-07, No Iterations 2
Time = 0.00415s

DILUPBiCGStab:  Solving for T, Initial residual = 0.0067823, Final residual = 1.19379e-07, No Iterations 2
Time = 0.00416s

DILUPBiCGStab:  Solving for T, Initial residual = 0.00677603, Final residual = 1.18845e-07, No Iterations 2
Time = 0.00417s

DILUPBiCGStab:  Solving for T, Initial residual = 0.00677269, Final residual = 1.18254e-07, No Iterations 2
Time = 0.00418s

DILUPBiCGStab:  Solving for T, Initial residual = 0.00677019, Final residual = 1.17617e-07, No Iterations 2
Time = 0.00419s

DILUPBiCGStab:  Solving for T, Initial residual = 0.00676882, Final residual = 1.16925e-07, No Iterations 2
Time = 0.0042s

DILUPBiCGStab:  Solving for T, Initial residual = 0.00676709, Final residual = 1.16216e-07, No Iterations 2
Time = 0.00421s

DILUPBiCGStab:  Solving for T, Initial residual = 0.00676295, Final residual = 1.15465e-07, No Iterations 2
Time = 0.00422s

DILUPBiCGStab:  Solving for T, Initial residual = 0.00675761, Final residual = 1.14632e-07, No Iterations 2
Time = 0.00423s

DILUPBiCGStab:  Solving for T, Initial residual = 0.00675151, Final residual = 1.13772e-07, No Iterations 2
Time = 0.00424s

DILUPBiCGStab:  Solving for T, Initial residual = 0.00674475, Final residual = 1.12903e-07, No Iterations 2
Time = 0.00425s

DILUPBiCGStab:  Solving for T, Initial residual = 0.00674148, Final residual = 1.11979e-07, No Iterations 2
Time = 0.00426s

DILUPBiCGStab:  Solving for T, Initial residual = 0.00674095, Final residual = 1.11003e-07, No Iterations 2
Time = 0.00427s

DILUPBiCGStab:  Solving for T, Initial residual = 0.00673933, Final residual = 1.10043e-07, No Iterations 2
Time = 0.00428s

DILUPBiCGStab:  Solving for T, Initial residual = 0.00673703, Final residual = 1.0905e-07, No Iterations 2
Time = 0.00429s

DILUPBiCGStab:  Solving for T, Initial residual = 0.00673443, Final residual = 1.08044e-07, No Iterations 2
Time = 0.0043s

DILUPBiCGStab:  Solving for T, Initial residual = 0.00673039, Final residual = 1.07147e-07, No Iterations 2
Time = 0.00431s

DILUPBiCGStab:  Solving for T, Initial residual = 0.00672512, Final residual = 1.06366e-07, No Iterations 2
Time = 0.00432s

DILUPBiCGStab:  Solving for T, Initial residual = 0.00672175, Final residual = 1.05692e-07, No Iterations 2
Time = 0.00433s

DILUPBiCGStab:  Solving for T, Initial residual = 0.00671935, Final residual = 1.05186e-07, No Iterations 2
Time = 0.00434s

DILUPBiCGStab:  Solving for T, Initial residual = 0.00671611, Final residual = 1.04722e-07, No Iterations 2
Time = 0.00435s

DILUPBiCGStab:  Solving for T, Initial residual = 0.00671222, Final residual = 1.04229e-07, No Iterations 2
Time = 0.00436s

DILUPBiCGStab:  Solving for T, Initial residual = 0.00670801, Final residual = 1.03646e-07, No Iterations 2
Time = 0.00437s

DILUPBiCGStab:  Solving for T, Initial residual = 0.00670334, Final residual = 1.03029e-07, No Iterations 2
Time = 0.00438s

DILUPBiCGStab:  Solving for T, Initial residual = 0.00669929, Final residual = 1.02299e-07, No Iterations 2
Time = 0.00439s

DILUPBiCGStab:  Solving for T, Initial residual = 0.00669641, Final residual = 1.01452e-07, No Iterations 2
Time = 0.0044s

DILUPBiCGStab:  Solving for T, Initial residual = 0.00669503, Final residual = 1.00484e-07, No Iterations 2
Time = 0.00441s

DILUPBiCGStab:  Solving for T, Initial residual = 0.00669323, Final residual = 9.94004e-08, No Iterations 2
Time = 0.00442s

DILUPBiCGStab:  Solving for T, Initial residual = 0.00669, Final residual = 9.81641e-08, No Iterations 2
Time = 0.00443s

DILUPBiCGStab:  Solving for T, Initial residual = 0.00668617, Final residual = 9.67889e-08, No Iterations 2
Time = 0.00444s

DILUPBiCGStab:  Solving for T, Initial residual = 0.00668145, Final residual = 9.52686e-08, No Iterations 2
Time = 0.00445s

DILUPBiCGStab:  Solving for T, Initial residual = 0.00667711, Final residual = 9.36073e-08, No Iterations 2
Time = 0.00446s

DILUPBiCGStab:  Solving for T, Initial residual = 0.00667309, Final residual = 9.18115e-08, No Iterations 2
Time = 0.00447s

DILUPBiCGStab:  Solving for T, Initial residual = 0.00666877, Final residual = 8.99233e-08, No Iterations 2
Time = 0.00448s

DILUPBiCGStab:  Solving for T, Initial residual = 0.00666412, Final residual = 8.79475e-08, No Iterations 2
Time = 0.00449s

DILUPBiCGStab:  Solving for T, Initial residual = 0.00665835, Final residual = 8.58894e-08, No Iterations 2
Time = 0.0045s

DILUPBiCGStab:  Solving for T, Initial residual = 0.00665403, Final residual = 8.3785e-08, No Iterations 2
Time = 0.00451s

DILUPBiCGStab:  Solving for T, Initial residual = 0.00665177, Final residual = 8.16997e-08, No Iterations 2
Time = 0.00452s

DILUPBiCGStab:  Solving for T, Initial residual = 0.00664939, Final residual = 7.97398e-08, No Iterations 2
Time = 0.00453s

DILUPBiCGStab:  Solving for T, Initial residual = 0.00664628, Final residual = 7.80145e-08, No Iterations 2
Time = 0.00454s

DILUPBiCGStab:  Solving for T, Initial residual = 0.00664313, Final residual = 7.65829e-08, No Iterations 2
Time = 0.00455s

DILUPBiCGStab:  Solving for T, Initial residual = 0.00663969, Final residual = 7.56159e-08, No Iterations 2
Time = 0.00456s

DILUPBiCGStab:  Solving for T, Initial residual = 0.00663647, Final residual = 7.50885e-08, No Iterations 2
Time = 0.00457s

DILUPBiCGStab:  Solving for T, Initial residual = 0.00663237, Final residual = 7.5108e-08, No Iterations 2
Time = 0.00458s

DILUPBiCGStab:  Solving for T, Initial residual = 0.00662816, Final residual = 7.56051e-08, No Iterations 2
Time = 0.00459s

DILUPBiCGStab:  Solving for T, Initial residual = 0.00662394, Final residual = 7.65136e-08, No Iterations 2
Time = 0.0046s

DILUPBiCGStab:  Solving for T, Initial residual = 0.00661897, Final residual = 7.77264e-08, No Iterations 2
Time = 0.00461s

DILUPBiCGStab:  Solving for T, Initial residual = 0.0066141, Final residual = 7.90609e-08, No Iterations 2
Time = 0.00462s

DILUPBiCGStab:  Solving for T, Initial residual = 0.00660813, Final residual = 8.02312e-08, No Iterations 2
Time = 0.00463s

DILUPBiCGStab:  Solving for T, Initial residual = 0.00660373, Final residual = 8.11629e-08, No Iterations 2
Time = 0.00464s

DILUPBiCGStab:  Solving for T, Initial residual = 0.00659977, Final residual = 8.18939e-08, No Iterations 2
Time = 0.00465s

DILUPBiCGStab:  Solving for T, Initial residual = 0.00659502, Final residual = 8.2449e-08, No Iterations 2
Time = 0.00466s

DILUPBiCGStab:  Solving for T, Initial residual = 0.00659217, Final residual = 8.30063e-08, No Iterations 2
Time = 0.00467s

DILUPBiCGStab:  Solving for T, Initial residual = 0.00658946, Final residual = 8.36158e-08, No Iterations 2
Time = 0.00468s

DILUPBiCGStab:  Solving for T, Initial residual = 0.00658657, Final residual = 8.43584e-08, No Iterations 2
Time = 0.00469s

DILUPBiCGStab:  Solving for T, Initial residual = 0.00658407, Final residual = 8.52775e-08, No Iterations 2
Time = 0.0047s

DILUPBiCGStab:  Solving for T, Initial residual = 0.00658046, Final residual = 8.66258e-08, No Iterations 2
Time = 0.00471s

DILUPBiCGStab:  Solving for T, Initial residual = 0.00657679, Final residual = 8.80702e-08, No Iterations 2
Time = 0.00472s

DILUPBiCGStab:  Solving for T, Initial residual = 0.006572, Final residual = 8.95715e-08, No Iterations 2
Time = 0.00473s

DILUPBiCGStab:  Solving for T, Initial residual = 0.00656766, Final residual = 9.098e-08, No Iterations 2
Time = 0.00474s

DILUPBiCGStab:  Solving for T, Initial residual = 0.00656331, Final residual = 9.23363e-08, No Iterations 2
Time = 0.00475s

DILUPBiCGStab:  Solving for T, Initial residual = 0.00655873, Final residual = 9.36109e-08, No Iterations 2
Time = 0.00476s

DILUPBiCGStab:  Solving for T, Initial residual = 0.00655421, Final residual = 9.48629e-08, No Iterations 2
Time = 0.00477s

DILUPBiCGStab:  Solving for T, Initial residual = 0.00655, Final residual = 9.61336e-08, No Iterations 2
Time = 0.00478s

DILUPBiCGStab:  Solving for T, Initial residual = 0.00654564, Final residual = 9.73663e-08, No Iterations 2
Time = 0.00479s

DILUPBiCGStab:  Solving for T, Initial residual = 0.00654267, Final residual = 9.85309e-08, No Iterations 2
Time = 0.0048s

DILUPBiCGStab:  Solving for T, Initial residual = 0.00653817, Final residual = 9.96082e-08, No Iterations 2
Time = 0.00481s

DILUPBiCGStab:  Solving for T, Initial residual = 0.00653338, Final residual = 1.00682e-07, No Iterations 2
Time = 0.00482s

DILUPBiCGStab:  Solving for T, Initial residual = 0.00652895, Final residual = 1.01681e-07, No Iterations 2
Time = 0.00483s

DILUPBiCGStab:  Solving for T, Initial residual = 0.00652546, Final residual = 1.02583e-07, No Iterations 2
Time = 0.00484s

DILUPBiCGStab:  Solving for T, Initial residual = 0.00652084, Final residual = 1.03346e-07, No Iterations 2
Time = 0.00485s

DILUPBiCGStab:  Solving for T, Initial residual = 0.00651659, Final residual = 1.03947e-07, No Iterations 2
Time = 0.00486s

DILUPBiCGStab:  Solving for T, Initial residual = 0.00651366, Final residual = 1.04466e-07, No Iterations 2
Time = 0.00487s

DILUPBiCGStab:  Solving for T, Initial residual = 0.00651143, Final residual = 1.04887e-07, No Iterations 2
Time = 0.00488s

DILUPBiCGStab:  Solving for T, Initial residual = 0.00650817, Final residual = 1.05222e-07, No Iterations 2
Time = 0.00489s

DILUPBiCGStab:  Solving for T, Initial residual = 0.00650485, Final residual = 1.05472e-07, No Iterations 2
Time = 0.0049s

DILUPBiCGStab:  Solving for T, Initial residual = 0.00650168, Final residual = 1.05611e-07, No Iterations 2
Time = 0.00491s

DILUPBiCGStab:  Solving for T, Initial residual = 0.00649751, Final residual = 1.05716e-07, No Iterations 2
Time = 0.00492s

DILUPBiCGStab:  Solving for T, Initial residual = 0.00649405, Final residual = 1.05746e-07, No Iterations 2
Time = 0.00493s

DILUPBiCGStab:  Solving for T, Initial residual = 0.00649032, Final residual = 1.057e-07, No Iterations 2
Time = 0.00494s

DILUPBiCGStab:  Solving for T, Initial residual = 0.00648729, Final residual = 1.05595e-07, No Iterations 2
Time = 0.00495s

DILUPBiCGStab:  Solving for T, Initial residual = 0.00648337, Final residual = 1.05457e-07, No Iterations 2
Time = 0.00496s

DILUPBiCGStab:  Solving for T, Initial residual = 0.00647958, Final residual = 1.05287e-07, No Iterations 2
Time = 0.00497s

DILUPBiCGStab:  Solving for T, Initial residual = 0.00647654, Final residual = 1.05099e-07, No Iterations 2
Time = 0.00498s

DILUPBiCGStab:  Solving for T, Initial residual = 0.00647302, Final residual = 1.04875e-07, No Iterations 2
Time = 0.00499s

DILUPBiCGStab:  Solving for T, Initial residual = 0.00646844, Final residual = 1.04663e-07, No Iterations 2
Time = 0.005s

DILUPBiCGStab:  Solving for T, Initial residual = 0.00646509, Final residual = 1.0444e-07, No Iterations 2
Time = 0.00501s

DILUPBiCGStab:  Solving for T, Initial residual = 0.00646176, Final residual = 1.04257e-07, No Iterations 2
Time = 0.00502s

DILUPBiCGStab:  Solving for T, Initial residual = 0.00645799, Final residual = 1.04086e-07, No Iterations 2
Time = 0.00503s

DILUPBiCGStab:  Solving for T, Initial residual = 0.00645304, Final residual = 1.03956e-07, No Iterations 2
Time = 0.00504s

DILUPBiCGStab:  Solving for T, Initial residual = 0.00644824, Final residual = 1.0384e-07, No Iterations 2
Time = 0.00505s

DILUPBiCGStab:  Solving for T, Initial residual = 0.00644503, Final residual = 1.0376e-07, No Iterations 2
Time = 0.00506s

DILUPBiCGStab:  Solving for T, Initial residual = 0.0064424, Final residual = 1.03731e-07, No Iterations 2
Time = 0.00507s

DILUPBiCGStab:  Solving for T, Initial residual = 0.00643989, Final residual = 1.0374e-07, No Iterations 2
Time = 0.00508s

DILUPBiCGStab:  Solving for T, Initial residual = 0.00643585, Final residual = 1.03757e-07, No Iterations 2
Time = 0.00509s

DILUPBiCGStab:  Solving for T, Initial residual = 0.00643193, Final residual = 1.03755e-07, No Iterations 2
Time = 0.0051s

DILUPBiCGStab:  Solving for T, Initial residual = 0.00642901, Final residual = 1.03752e-07, No Iterations 2
Time = 0.00511s

DILUPBiCGStab:  Solving for T, Initial residual = 0.00642806, Final residual = 1.03762e-07, No Iterations 2
Time = 0.00512s

DILUPBiCGStab:  Solving for T, Initial residual = 0.00642665, Final residual = 1.03753e-07, No Iterations 2
Time = 0.00513s

DILUPBiCGStab:  Solving for T, Initial residual = 0.00642463, Final residual = 1.03733e-07, No Iterations 2
Time = 0.00514s

DILUPBiCGStab:  Solving for T, Initial residual = 0.00642136, Final residual = 1.03696e-07, No Iterations 2
Time = 0.00515s

DILUPBiCGStab:  Solving for T, Initial residual = 0.00641734, Final residual = 1.03644e-07, No Iterations 2
Time = 0.00516s

DILUPBiCGStab:  Solving for T, Initial residual = 0.00641292, Final residual = 1.03559e-07, No Iterations 2
Time = 0.00517s

DILUPBiCGStab:  Solving for T, Initial residual = 0.00641042, Final residual = 1.03445e-07, No Iterations 2
Time = 0.00518s

DILUPBiCGStab:  Solving for T, Initial residual = 0.0064083, Final residual = 1.0332e-07, No Iterations 2
Time = 0.00519s

DILUPBiCGStab:  Solving for T, Initial residual = 0.0064068, Final residual = 1.03182e-07, No Iterations 2
Time = 0.0052s

DILUPBiCGStab:  Solving for T, Initial residual = 0.00640478, Final residual = 1.03058e-07, No Iterations 2
Time = 0.00521s

DILUPBiCGStab:  Solving for T, Initial residual = 0.00640163, Final residual = 1.02913e-07, No Iterations 2
Time = 0.00522s

DILUPBiCGStab:  Solving for T, Initial residual = 0.00639811, Final residual = 1.02742e-07, No Iterations 2
Time = 0.00523s

DILUPBiCGStab:  Solving for T, Initial residual = 0.00639326, Final residual = 1.02539e-07, No Iterations 2
Time = 0.00524s

DILUPBiCGStab:  Solving for T, Initial residual = 0.00639052, Final residual = 1.02295e-07, No Iterations 2
Time = 0.00525s

DILUPBiCGStab:  Solving for T, Initial residual = 0.00638876, Final residual = 1.02016e-07, No Iterations 2
Time = 0.00526s

DILUPBiCGStab:  Solving for T, Initial residual = 0.00638678, Final residual = 1.01694e-07, No Iterations 2
Time = 0.00527s

DILUPBiCGStab:  Solving for T, Initial residual = 0.00638486, Final residual = 1.01336e-07, No Iterations 2
Time = 0.00528s

DILUPBiCGStab:  Solving for T, Initial residual = 0.00638287, Final residual = 1.00938e-07, No Iterations 2
Time = 0.00529s

DILUPBiCGStab:  Solving for T, Initial residual = 0.00637975, Final residual = 1.00495e-07, No Iterations 2
Time = 0.0053s

DILUPBiCGStab:  Solving for T, Initial residual = 0.00637627, Final residual = 1.00002e-07, No Iterations 2
Time = 0.00531s

DILUPBiCGStab:  Solving for T, Initial residual = 0.0063714, Final residual = 9.94803e-08, No Iterations 2
Time = 0.00532s

DILUPBiCGStab:  Solving for T, Initial residual = 0.00636877, Final residual = 9.89139e-08, No Iterations 2
Time = 0.00533s

DILUPBiCGStab:  Solving for T, Initial residual = 0.0063682, Final residual = 9.83267e-08, No Iterations 2
Time = 0.00534s

DILUPBiCGStab:  Solving for T, Initial residual = 0.00636706, Final residual = 9.76914e-08, No Iterations 2
Time = 0.00535s

DILUPBiCGStab:  Solving for T, Initial residual = 0.00636557, Final residual = 9.7037e-08, No Iterations 2
Time = 0.00536s

DILUPBiCGStab:  Solving for T, Initial residual = 0.00636405, Final residual = 9.63802e-08, No Iterations 2
Time = 0.00537s

DILUPBiCGStab:  Solving for T, Initial residual = 0.00636215, Final residual = 9.57199e-08, No Iterations 2
Time = 0.00538s

DILUPBiCGStab:  Solving for T, Initial residual = 0.00635881, Final residual = 9.50541e-08, No Iterations 2
Time = 0.00539s

DILUPBiCGStab:  Solving for T, Initial residual = 0.00635507, Final residual = 9.43804e-08, No Iterations 2
Time = 0.0054s

DILUPBiCGStab:  Solving for T, Initial residual = 0.00635091, Final residual = 9.36842e-08, No Iterations 2
Time = 0.00541s

DILUPBiCGStab:  Solving for T, Initial residual = 0.00634747, Final residual = 9.29754e-08, No Iterations 2
Time = 0.00542s

DILUPBiCGStab:  Solving for T, Initial residual = 0.00634632, Final residual = 9.22704e-08, No Iterations 2
Time = 0.00543s

DILUPBiCGStab:  Solving for T, Initial residual = 0.0063463, Final residual = 9.1527e-08, No Iterations 2
Time = 0.00544s

DILUPBiCGStab:  Solving for T, Initial residual = 0.00634574, Final residual = 9.07557e-08, No Iterations 2
Time = 0.00545s

DILUPBiCGStab:  Solving for T, Initial residual = 0.00634508, Final residual = 8.99703e-08, No Iterations 2
Time = 0.00546s

DILUPBiCGStab:  Solving for T, Initial residual = 0.00634402, Final residual = 8.91783e-08, No Iterations 2
Time = 0.00547s

DILUPBiCGStab:  Solving for T, Initial residual = 0.00634195, Final residual = 8.83843e-08, No Iterations 2
Time = 0.00548s

DILUPBiCGStab:  Solving for T, Initial residual = 0.00633875, Final residual = 8.75711e-08, No Iterations 2
Time = 0.00549s

DILUPBiCGStab:  Solving for T, Initial residual = 0.00633458, Final residual = 8.67347e-08, No Iterations 2
Time = 0.0055s

DILUPBiCGStab:  Solving for T, Initial residual = 0.00632983, Final residual = 8.58729e-08, No Iterations 2
Time = 0.00551s

DILUPBiCGStab:  Solving for T, Initial residual = 0.00632535, Final residual = 8.4984e-08, No Iterations 2
Time = 0.00552s

DILUPBiCGStab:  Solving for T, Initial residual = 0.00632287, Final residual = 8.40819e-08, No Iterations 2
Time = 0.00553s

DILUPBiCGStab:  Solving for T, Initial residual = 0.0063215, Final residual = 8.31779e-08, No Iterations 2
Time = 0.00554s

DILUPBiCGStab:  Solving for T, Initial residual = 0.00632075, Final residual = 8.2262e-08, No Iterations 2
Time = 0.00555s

DILUPBiCGStab:  Solving for T, Initial residual = 0.00631899, Final residual = 8.13722e-08, No Iterations 2
Time = 0.00556s

DILUPBiCGStab:  Solving for T, Initial residual = 0.00631683, Final residual = 8.05196e-08, No Iterations 2
Time = 0.00557s

DILUPBiCGStab:  Solving for T, Initial residual = 0.00631486, Final residual = 7.97032e-08, No Iterations 2
Time = 0.00558s

DILUPBiCGStab:  Solving for T, Initial residual = 0.00631166, Final residual = 7.8897e-08, No Iterations 2
Time = 0.00559s

DILUPBiCGStab:  Solving for T, Initial residual = 0.00630792, Final residual = 7.80733e-08, No Iterations 2
Time = 0.0056s

DILUPBiCGStab:  Solving for T, Initial residual = 0.00630232, Final residual = 7.7244e-08, No Iterations 2
Time = 0.00561s

DILUPBiCGStab:  Solving for T, Initial residual = 0.00629538, Final residual = 7.64077e-08, No Iterations 2
Time = 0.00562s

DILUPBiCGStab:  Solving for T, Initial residual = 0.00628903, Final residual = 7.55606e-08, No Iterations 2
Time = 0.00563s

DILUPBiCGStab:  Solving for T, Initial residual = 0.00628533, Final residual = 7.47059e-08, No Iterations 2
Time = 0.00564s

DILUPBiCGStab:  Solving for T, Initial residual = 0.00628246, Final residual = 7.38569e-08, No Iterations 2
Time = 0.00565s

DILUPBiCGStab:  Solving for T, Initial residual = 0.00627933, Final residual = 7.30101e-08, No Iterations 2
Time = 0.00566s

DILUPBiCGStab:  Solving for T, Initial residual = 0.00627628, Final residual = 7.21551e-08, No Iterations 2
Time = 0.00567s

DILUPBiCGStab:  Solving for T, Initial residual = 0.00627317, Final residual = 7.12892e-08, No Iterations 2
Time = 0.00568s

DILUPBiCGStab:  Solving for T, Initial residual = 0.00626885, Final residual = 7.04396e-08, No Iterations 2
Time = 0.00569s

DILUPBiCGStab:  Solving for T, Initial residual = 0.00626363, Final residual = 6.96167e-08, No Iterations 2
Time = 0.0057s

DILUPBiCGStab:  Solving for T, Initial residual = 0.00625876, Final residual = 6.87923e-08, No Iterations 2
Time = 0.00571s

DILUPBiCGStab:  Solving for T, Initial residual = 0.00625209, Final residual = 6.79676e-08, No Iterations 2
Time = 0.00572s

DILUPBiCGStab:  Solving for T, Initial residual = 0.00624384, Final residual = 6.71361e-08, No Iterations 2
Time = 0.00573s

DILUPBiCGStab:  Solving for T, Initial residual = 0.00623436, Final residual = 6.62983e-08, No Iterations 2
Time = 0.00574s

DILUPBiCGStab:  Solving for T, Initial residual = 0.00622588, Final residual = 6.54947e-08, No Iterations 2
Time = 0.00575s

DILUPBiCGStab:  Solving for T, Initial residual = 0.0062204, Final residual = 6.47337e-08, No Iterations 2
Time = 0.00576s

DILUPBiCGStab:  Solving for T, Initial residual = 0.00621526, Final residual = 6.40094e-08, No Iterations 2
Time = 0.00577s

DILUPBiCGStab:  Solving for T, Initial residual = 0.00620989, Final residual = 6.32896e-08, No Iterations 2
Time = 0.00578s

DILUPBiCGStab:  Solving for T, Initial residual = 0.00620393, Final residual = 6.25837e-08, No Iterations 2
Time = 0.00579s

DILUPBiCGStab:  Solving for T, Initial residual = 0.00619755, Final residual = 6.18815e-08, No Iterations 2
Time = 0.0058s

DILUPBiCGStab:  Solving for T, Initial residual = 0.00618998, Final residual = 6.11726e-08, No Iterations 2
Time = 0.00581s

DILUPBiCGStab:  Solving for T, Initial residual = 0.0061826, Final residual = 6.04634e-08, No Iterations 2
Time = 0.00582s

DILUPBiCGStab:  Solving for T, Initial residual = 0.0061733, Final residual = 5.97578e-08, No Iterations 2
Time = 0.00583s

DILUPBiCGStab:  Solving for T, Initial residual = 0.00616264, Final residual = 5.90654e-08, No Iterations 2
Time = 0.00584s

DILUPBiCGStab:  Solving for T, Initial residual = 0.00615013, Final residual = 5.83832e-08, No Iterations 2
Time = 0.00585s

DILUPBiCGStab:  Solving for T, Initial residual = 0.00613749, Final residual = 5.77041e-08, No Iterations 2
Time = 0.00586s

DILUPBiCGStab:  Solving for T, Initial residual = 0.00612617, Final residual = 5.70221e-08, No Iterations 2
Time = 0.00587s

DILUPBiCGStab:  Solving for T, Initial residual = 0.00611592, Final residual = 5.63392e-08, No Iterations 2
Time = 0.00588s

DILUPBiCGStab:  Solving for T, Initial residual = 0.00610641, Final residual = 5.56562e-08, No Iterations 2
Time = 0.00589s

DILUPBiCGStab:  Solving for T, Initial residual = 0.00609653, Final residual = 5.49795e-08, No Iterations 2
Time = 0.0059s

DILUPBiCGStab:  Solving for T, Initial residual = 0.00608535, Final residual = 5.43181e-08, No Iterations 2
Time = 0.00591s

DILUPBiCGStab:  Solving for T, Initial residual = 0.00607457, Final residual = 5.36909e-08, No Iterations 2
Time = 0.00592s

DILUPBiCGStab:  Solving for T, Initial residual = 0.00606339, Final residual = 5.30755e-08, No Iterations 2
Time = 0.00593s

DILUPBiCGStab:  Solving for T, Initial residual = 0.00605094, Final residual = 5.24786e-08, No Iterations 2
Time = 0.00594s

DILUPBiCGStab:  Solving for T, Initial residual = 0.00603809, Final residual = 5.18922e-08, No Iterations 2
Time = 0.00595s

DILUPBiCGStab:  Solving for T, Initial residual = 0.00602363, Final residual = 5.13177e-08, No Iterations 2
Time = 0.00596s

DILUPBiCGStab:  Solving for T, Initial residual = 0.00600759, Final residual = 5.07525e-08, No Iterations 2
Time = 0.00597s

DILUPBiCGStab:  Solving for T, Initial residual = 0.00599004, Final residual = 5.0205e-08, No Iterations 2
Time = 0.00598s

DILUPBiCGStab:  Solving for T, Initial residual = 0.00597335, Final residual = 4.96734e-08, No Iterations 2
Time = 0.00599s

DILUPBiCGStab:  Solving for T, Initial residual = 0.00595944, Final residual = 4.91671e-08, No Iterations 2
Time = 0.006s

DILUPBiCGStab:  Solving for T, Initial residual = 0.00594546, Final residual = 9.94489e-07, No Iterations 1
Time = 0.00601s

DILUPBiCGStab:  Solving for T, Initial residual = 0.0059308, Final residual = 9.79379e-07, No Iterations 1
Time = 0.00602s

DILUPBiCGStab:  Solving for T, Initial residual = 0.00591597, Final residual = 9.64377e-07, No Iterations 1
Time = 0.00603s

DILUPBiCGStab:  Solving for T, Initial residual = 0.0059005, Final residual = 9.49718e-07, No Iterations 1
Time = 0.00604s

DILUPBiCGStab:  Solving for T, Initial residual = 0.00588443, Final residual = 9.3518e-07, No Iterations 1
Time = 0.00605s

DILUPBiCGStab:  Solving for T, Initial residual = 0.00586729, Final residual = 9.20887e-07, No Iterations 1
Time = 0.00606s

DILUPBiCGStab:  Solving for T, Initial residual = 0.00584908, Final residual = 9.06851e-07, No Iterations 1
Time = 0.00607s

DILUPBiCGStab:  Solving for T, Initial residual = 0.00582894, Final residual = 8.93046e-07, No Iterations 1
Time = 0.00608s

DILUPBiCGStab:  Solving for T, Initial residual = 0.00580821, Final residual = 8.79496e-07, No Iterations 1
Time = 0.00609s

DILUPBiCGStab:  Solving for T, Initial residual = 0.00578622, Final residual = 8.66207e-07, No Iterations 1
Time = 0.0061s

DILUPBiCGStab:  Solving for T, Initial residual = 0.00576309, Final residual = 8.53322e-07, No Iterations 1
Time = 0.00611s

DILUPBiCGStab:  Solving for T, Initial residual = 0.0057423, Final residual = 8.40875e-07, No Iterations 1
Time = 0.00612s

DILUPBiCGStab:  Solving for T, Initial residual = 0.00572192, Final residual = 8.28722e-07, No Iterations 1
Time = 0.00613s

DILUPBiCGStab:  Solving for T, Initial residual = 0.00570275, Final residual = 8.16917e-07, No Iterations 1
Time = 0.00614s

DILUPBiCGStab:  Solving for T, Initial residual = 0.0056829, Final residual = 8.05475e-07, No Iterations 1
Time = 0.00615s

DILUPBiCGStab:  Solving for T, Initial residual = 0.00566225, Final residual = 7.94363e-07, No Iterations 1
Time = 0.00616s

DILUPBiCGStab:  Solving for T, Initial residual = 0.00564099, Final residual = 7.83528e-07, No Iterations 1
Time = 0.00617s

DILUPBiCGStab:  Solving for T, Initial residual = 0.00561946, Final residual = 7.72923e-07, No Iterations 1
Time = 0.00618s

DILUPBiCGStab:  Solving for T, Initial residual = 0.00559734, Final residual = 7.62542e-07, No Iterations 1
Time = 0.00619s

DILUPBiCGStab:  Solving for T, Initial residual = 0.0055738, Final residual = 7.52538e-07, No Iterations 1
Time = 0.0062s

DILUPBiCGStab:  Solving for T, Initial residual = 0.00554962, Final residual = 7.42885e-07, No Iterations 1
Time = 0.00621s

DILUPBiCGStab:  Solving for T, Initial residual = 0.00552373, Final residual = 7.33512e-07, No Iterations 1
Time = 0.00622s

DILUPBiCGStab:  Solving for T, Initial residual = 0.00549609, Final residual = 7.24324e-07, No Iterations 1
Time = 0.00623s

DILUPBiCGStab:  Solving for T, Initial residual = 0.00546829, Final residual = 7.15358e-07, No Iterations 1
Time = 0.00624s

DILUPBiCGStab:  Solving for T, Initial residual = 0.00544344, Final residual = 7.06657e-07, No Iterations 1
Time = 0.00625s

DILUPBiCGStab:  Solving for T, Initial residual = 0.00541986, Final residual = 6.98314e-07, No Iterations 1
Time = 0.00626s

DILUPBiCGStab:  Solving for T, Initial residual = 0.00539646, Final residual = 6.90272e-07, No Iterations 1
Time = 0.00627s

DILUPBiCGStab:  Solving for T, Initial residual = 0.00537245, Final residual = 6.82461e-07, No Iterations 1
Time = 0.00628s

DILUPBiCGStab:  Solving for T, Initial residual = 0.00534831, Final residual = 6.74789e-07, No Iterations 1
Time = 0.00629s

DILUPBiCGStab:  Solving for T, Initial residual = 0.00532396, Final residual = 6.67334e-07, No Iterations 1
Time = 0.0063s

DILUPBiCGStab:  Solving for T, Initial residual = 0.00529821, Final residual = 6.60222e-07, No Iterations 1
Time = 0.00631s

DILUPBiCGStab:  Solving for T, Initial residual = 0.00527176, Final residual = 6.53457e-07, No Iterations 1
Time = 0.00632s

[...]
Time = 0.09842s

DILUPBiCGStab:  Solving for T, Initial residual = 0.000320676, Final residual = 3.23166e-07, No Iterations 1
Time = 0.09843s

DILUPBiCGStab:  Solving for T, Initial residual = 0.000320675, Final residual = 3.23165e-07, No Iterations 1
Time = 0.09844s

DILUPBiCGStab:  Solving for T, Initial residual = 0.000320673, Final residual = 3.23165e-07, No Iterations 1
Time = 0.09845s

DILUPBiCGStab:  Solving for T, Initial residual = 0.000320672, Final residual = 3.23164e-07, No Iterations 1
Time = 0.09846s

DILUPBiCGStab:  Solving for T, Initial residual = 0.000320671, Final residual = 3.23164e-07, No Iterations 1
Time = 0.09847s

DILUPBiCGStab:  Solving for T, Initial residual = 0.00032067, Final residual = 3.23163e-07, No Iterations 1
Time = 0.09848s

DILUPBiCGStab:  Solving for T, Initial residual = 0.000320669, Final residual = 3.23162e-07, No Iterations 1
Time = 0.09849s

DILUPBiCGStab:  Solving for T, Initial residual = 0.000320668, Final residual = 3.23162e-07, No Iterations 1
Time = 0.0985s

DILUPBiCGStab:  Solving for T, Initial residual = 0.000320667, Final residual = 3.23161e-07, No Iterations 1
Time = 0.09851s

DILUPBiCGStab:  Solving for T, Initial residual = 0.000320666, Final residual = 3.23161e-07, No Iterations 1
Time = 0.09852s

DILUPBiCGStab:  Solving for T, Initial residual = 0.000320665, Final residual = 3.2316e-07, No Iterations 1
Time = 0.09853s

DILUPBiCGStab:  Solving for T, Initial residual = 0.000320664, Final residual = 3.2316e-07, No Iterations 1
Time = 0.09854s

DILUPBiCGStab:  Solving for T, Initial residual = 0.000320663, Final residual = 3.23159e-07, No Iterations 1
Time = 0.09855s

DILUPBiCGStab:  Solving for T, Initial residual = 0.000320662, Final residual = 3.23159e-07, No Iterations 1
Time = 0.09856s

DILUPBiCGStab:  Solving for T, Initial residual = 0.000320661, Final residual = 3.23158e-07, No Iterations 1
Time = 0.09857s

DILUPBiCGStab:  Solving for T, Initial residual = 0.00032066, Final residual = 3.23157e-07, No Iterations 1
Time = 0.09858s

DILUPBiCGStab:  Solving for T, Initial residual = 0.000320659, Final residual = 3.23157e-07, No Iterations 1
Time = 0.09859s

DILUPBiCGStab:  Solving for T, Initial residual = 0.000320658, Final residual = 3.23156e-07, No Iterations 1
Time = 0.0986s

DILUPBiCGStab:  Solving for T, Initial residual = 0.000320657, Final residual = 3.23156e-07, No Iterations 1
Time = 0.09861s

DILUPBiCGStab:  Solving for T, Initial residual = 0.000320656, Final residual = 3.23155e-07, No Iterations 1
Time = 0.09862s

DILUPBiCGStab:  Solving for T, Initial residual = 0.000320655, Final residual = 3.23155e-07, No Iterations 1
Time = 0.09863s

DILUPBiCGStab:  Solving for T, Initial residual = 0.000320654, Final residual = 3.23154e-07, No Iterations 1
Time = 0.09864s

DILUPBiCGStab:  Solving for T, Initial residual = 0.000320652, Final residual = 3.23154e-07, No Iterations 1
Time = 0.09865s

DILUPBiCGStab:  Solving for T, Initial residual = 0.000320651, Final residual = 3.23153e-07, No Iterations 1
Time = 0.09866s

DILUPBiCGStab:  Solving for T, Initial residual = 0.00032065, Final residual = 3.23153e-07, No Iterations 1
Time = 0.09867s

DILUPBiCGStab:  Solving for T, Initial residual = 0.000320649, Final residual = 3.23152e-07, No Iterations 1
Time = 0.09868s

DILUPBiCGStab:  Solving for T, Initial residual = 0.000320648, Final residual = 3.23152e-07, No Iterations 1
Time = 0.09869s

DILUPBiCGStab:  Solving for T, Initial residual = 0.000320647, Final residual = 3.23151e-07, No Iterations 1
Time = 0.0987s

DILUPBiCGStab:  Solving for T, Initial residual = 0.000320646, Final residual = 3.2315e-07, No Iterations 1
Time = 0.09871s

DILUPBiCGStab:  Solving for T, Initial residual = 0.000320645, Final residual = 3.2315e-07, No Iterations 1
Time = 0.09872s

DILUPBiCGStab:  Solving for T, Initial residual = 0.000320644, Final residual = 3.23149e-07, No Iterations 1
Time = 0.09873s

DILUPBiCGStab:  Solving for T, Initial residual = 0.000320643, Final residual = 3.23149e-07, No Iterations 1
Time = 0.09874s

DILUPBiCGStab:  Solving for T, Initial residual = 0.000320642, Final residual = 3.23148e-07, No Iterations 1
Time = 0.09875s

DILUPBiCGStab:  Solving for T, Initial residual = 0.000320641, Final residual = 3.23148e-07, No Iterations 1
Time = 0.09876s

DILUPBiCGStab:  Solving for T, Initial residual = 0.00032064, Final residual = 3.23147e-07, No Iterations 1
Time = 0.09877s

DILUPBiCGStab:  Solving for T, Initial residual = 0.000320639, Final residual = 3.23147e-07, No Iterations 1
Time = 0.09878s

DILUPBiCGStab:  Solving for T, Initial residual = 0.000320638, Final residual = 3.23146e-07, No Iterations 1
Time = 0.09879s

DILUPBiCGStab:  Solving for T, Initial residual = 0.000320637, Final residual = 3.23146e-07, No Iterations 1
Time = 0.0988s

DILUPBiCGStab:  Solving for T, Initial residual = 0.000320636, Final residual = 3.23145e-07, No Iterations 1
Time = 0.09881s

DILUPBiCGStab:  Solving for T, Initial residual = 0.000320635, Final residual = 3.23145e-07, No Iterations 1
Time = 0.09882s

DILUPBiCGStab:  Solving for T, Initial residual = 0.000320634, Final residual = 3.23144e-07, No Iterations 1
Time = 0.09883s

DILUPBiCGStab:  Solving for T, Initial residual = 0.000320633, Final residual = 3.23143e-07, No Iterations 1
Time = 0.09884s

DILUPBiCGStab:  Solving for T, Initial residual = 0.000320632, Final residual = 3.23143e-07, No Iterations 1
Time = 0.09885s

DILUPBiCGStab:  Solving for T, Initial residual = 0.000320631, Final residual = 3.23142e-07, No Iterations 1
Time = 0.09886s

DILUPBiCGStab:  Solving for T, Initial residual = 0.00032063, Final residual = 3.23142e-07, No Iterations 1
Time = 0.09887s

DILUPBiCGStab:  Solving for T, Initial residual = 0.000320629, Final residual = 3.23141e-07, No Iterations 1
Time = 0.09888s

DILUPBiCGStab:  Solving for T, Initial residual = 0.000320628, Final residual = 3.23141e-07, No Iterations 1
Time = 0.09889s

DILUPBiCGStab:  Solving for T, Initial residual = 0.000320627, Final residual = 3.2314e-07, No Iterations 1
Time = 0.0989s

DILUPBiCGStab:  Solving for T, Initial residual = 0.000320626, Final residual = 3.2314e-07, No Iterations 1
Time = 0.09891s

DILUPBiCGStab:  Solving for T, Initial residual = 0.000320625, Final residual = 3.23139e-07, No Iterations 1
Time = 0.09892s

DILUPBiCGStab:  Solving for T, Initial residual = 0.000320624, Final residual = 3.23139e-07, No Iterations 1
Time = 0.09893s

DILUPBiCGStab:  Solving for T, Initial residual = 0.000320623, Final residual = 3.23138e-07, No Iterations 1
Time = 0.09894s

DILUPBiCGStab:  Solving for T, Initial residual = 0.000320622, Final residual = 3.23138e-07, No Iterations 1
Time = 0.09895s

DILUPBiCGStab:  Solving for T, Initial residual = 0.000320621, Final residual = 3.23137e-07, No Iterations 1
Time = 0.09896s

DILUPBiCGStab:  Solving for T, Initial residual = 0.00032062, Final residual = 3.23137e-07, No Iterations 1
Time = 0.09897s

DILUPBiCGStab:  Solving for T, Initial residual = 0.000320619, Final residual = 3.23136e-07, No Iterations 1
Time = 0.09898s

DILUPBiCGStab:  Solving for T, Initial residual = 0.000320618, Final residual = 3.23136e-07, No Iterations 1
Time = 0.09899s

DILUPBiCGStab:  Solving for T, Initial residual = 0.000320617, Final residual = 3.23135e-07, No Iterations 1
Time = 0.099s

DILUPBiCGStab:  Solving for T, Initial residual = 0.000320616, Final residual = 3.23135e-07, No Iterations 1
Time = 0.09901s

DILUPBiCGStab:  Solving for T, Initial residual = 0.000320615, Final residual = 3.23134e-07, No Iterations 1
Time = 0.09902s

DILUPBiCGStab:  Solving for T, Initial residual = 0.000320614, Final residual = 3.23133e-07, No Iterations 1
Time = 0.09903s

DILUPBiCGStab:  Solving for T, Initial residual = 0.000320613, Final residual = 3.23133e-07, No Iterations 1
Time = 0.09904s

DILUPBiCGStab:  Solving for T, Initial residual = 0.000320612, Final residual = 3.23132e-07, No Iterations 1
Time = 0.09905s

DILUPBiCGStab:  Solving for T, Initial residual = 0.000320611, Final residual = 3.23132e-07, No Iterations 1
Time = 0.09906s

DILUPBiCGStab:  Solving for T, Initial residual = 0.00032061, Final residual = 3.23131e-07, No Iterations 1
Time = 0.09907s

DILUPBiCGStab:  Solving for T, Initial residual = 0.000320609, Final residual = 3.23131e-07, No Iterations 1
Time = 0.09908s

DILUPBiCGStab:  Solving for T, Initial residual = 0.000320608, Final residual = 3.2313e-07, No Iterations 1
Time = 0.09909s

DILUPBiCGStab:  Solving for T, Initial residual = 0.000320607, Final residual = 3.2313e-07, No Iterations 1
Time = 0.0991s

DILUPBiCGStab:  Solving for T, Initial residual = 0.000320606, Final residual = 3.23129e-07, No Iterations 1
Time = 0.09911s

DILUPBiCGStab:  Solving for T, Initial residual = 0.000320605, Final residual = 3.23129e-07, No Iterations 1
Time = 0.09912s

DILUPBiCGStab:  Solving for T, Initial residual = 0.000320604, Final residual = 3.23128e-07, No Iterations 1
Time = 0.09913s

DILUPBiCGStab:  Solving for T, Initial residual = 0.000320603, Final residual = 3.23128e-07, No Iterations 1
Time = 0.09914s

DILUPBiCGStab:  Solving for T, Initial residual = 0.000320602, Final residual = 3.23127e-07, No Iterations 1
Time = 0.09915s

DILUPBiCGStab:  Solving for T, Initial residual = 0.000320601, Final residual = 3.23127e-07, No Iterations 1
Time = 0.09916s

DILUPBiCGStab:  Solving for T, Initial residual = 0.0003206, Final residual = 3.23126e-07, No Iterations 1
Time = 0.09917s

DILUPBiCGStab:  Solving for T, Initial residual = 0.000320599, Final residual = 3.23126e-07, No Iterations 1
Time = 0.09918s

DILUPBiCGStab:  Solving for T, Initial residual = 0.000320598, Final residual = 3.23125e-07, No Iterations 1
Time = 0.09919s

DILUPBiCGStab:  Solving for T, Initial residual = 0.000320597, Final residual = 3.23125e-07, No Iterations 1
Time = 0.0992s

DILUPBiCGStab:  Solving for T, Initial residual = 0.000320596, Final residual = 3.23124e-07, No Iterations 1
Time = 0.09921s

DILUPBiCGStab:  Solving for T, Initial residual = 0.000320595, Final residual = 3.23124e-07, No Iterations 1
Time = 0.09922s

DILUPBiCGStab:  Solving for T, Initial residual = 0.000320594, Final residual = 3.23123e-07, No Iterations 1
Time = 0.09923s

DILUPBiCGStab:  Solving for T, Initial residual = 0.000320593, Final residual = 3.23123e-07, No Iterations 1
Time = 0.09924s

DILUPBiCGStab:  Solving for T, Initial residual = 0.000320592, Final residual = 3.23122e-07, No Iterations 1
Time = 0.09925s

DILUPBiCGStab:  Solving for T, Initial residual = 0.000320591, Final residual = 3.23122e-07, No Iterations 1
Time = 0.09926s

DILUPBiCGStab:  Solving for T, Initial residual = 0.00032059, Final residual = 3.23121e-07, No Iterations 1
Time = 0.09927s

DILUPBiCGStab:  Solving for T, Initial residual = 0.000320589, Final residual = 3.23121e-07, No Iterations 1
Time = 0.09928s

DILUPBiCGStab:  Solving for T, Initial residual = 0.000320588, Final residual = 3.2312e-07, No Iterations 1
Time = 0.09929s

DILUPBiCGStab:  Solving for T, Initial residual = 0.000320587, Final residual = 3.2312e-07, No Iterations 1
Time = 0.0993s

DILUPBiCGStab:  Solving for T, Initial residual = 0.000320586, Final residual = 3.23119e-07, No Iterations 1
Time = 0.09931s

DILUPBiCGStab:  Solving for T, Initial residual = 0.000320585, Final residual = 3.23119e-07, No Iterations 1
Time = 0.09932s

DILUPBiCGStab:  Solving for T, Initial residual = 0.000320584, Final residual = 3.23118e-07, No Iterations 1
Time = 0.09933s

DILUPBiCGStab:  Solving for T, Initial residual = 0.000320583, Final residual = 3.23118e-07, No Iterations 1
Time = 0.09934s

DILUPBiCGStab:  Solving for T, Initial residual = 0.000320582, Final residual = 3.23117e-07, No Iterations 1
Time = 0.09935s

DILUPBiCGStab:  Solving for T, Initial residual = 0.000320581, Final residual = 3.23117e-07, No Iterations 1
Time = 0.09936s

DILUPBiCGStab:  Solving for T, Initial residual = 0.00032058, Final residual = 3.23116e-07, No Iterations 1
Time = 0.09937s

DILUPBiCGStab:  Solving for T, Initial residual = 0.000320579, Final residual = 3.23116e-07, No Iterations 1
Time = 0.09938s

DILUPBiCGStab:  Solving for T, Initial residual = 0.000320578, Final residual = 3.23115e-07, No Iterations 1
Time = 0.09939s

DILUPBiCGStab:  Solving for T, Initial residual = 0.000320577, Final residual = 3.23115e-07, No Iterations 1
Time = 0.0994s

DILUPBiCGStab:  Solving for T, Initial residual = 0.000320576, Final residual = 3.23114e-07, No Iterations 1
Time = 0.09941s

DILUPBiCGStab:  Solving for T, Initial residual = 0.000320575, Final residual = 3.23114e-07, No Iterations 1
Time = 0.09942s

DILUPBiCGStab:  Solving for T, Initial residual = 0.000320574, Final residual = 3.23113e-07, No Iterations 1
Time = 0.09943s

DILUPBiCGStab:  Solving for T, Initial residual = 0.000320573, Final residual = 3.23113e-07, No Iterations 1
Time = 0.09944s

DILUPBiCGStab:  Solving for T, Initial residual = 0.000320572, Final residual = 3.23112e-07, No Iterations 1
Time = 0.09945s

DILUPBiCGStab:  Solving for T, Initial residual = 0.000320571, Final residual = 3.23112e-07, No Iterations 1
Time = 0.09946s

DILUPBiCGStab:  Solving for T, Initial residual = 0.00032057, Final residual = 3.23111e-07, No Iterations 1
Time = 0.09947s

DILUPBiCGStab:  Solving for T, Initial residual = 0.000320569, Final residual = 3.23111e-07, No Iterations 1
Time = 0.09948s

DILUPBiCGStab:  Solving for T, Initial residual = 0.000320568, Final residual = 3.2311e-07, No Iterations 1
Time = 0.09949s

DILUPBiCGStab:  Solving for T, Initial residual = 0.000320567, Final residual = 3.2311e-07, No Iterations 1
Time = 0.0995s

DILUPBiCGStab:  Solving for T, Initial residual = 0.000320566, Final residual = 3.23109e-07, No Iterations 1
Time = 0.09951s

DILUPBiCGStab:  Solving for T, Initial residual = 0.000320565, Final residual = 3.23109e-07, No Iterations 1
Time = 0.09952s

DILUPBiCGStab:  Solving for T, Initial residual = 0.000320565, Final residual = 3.23108e-07, No Iterations 1
Time = 0.09953s

DILUPBiCGStab:  Solving for T, Initial residual = 0.000320564, Final residual = 3.23108e-07, No Iterations 1
Time = 0.09954s

DILUPBiCGStab:  Solving for T, Initial residual = 0.000320563, Final residual = 3.23107e-07, No Iterations 1
Time = 0.09955s

DILUPBiCGStab:  Solving for T, Initial residual = 0.000320562, Final residual = 3.23107e-07, No Iterations 1
Time = 0.09956s

DILUPBiCGStab:  Solving for T, Initial residual = 0.000320561, Final residual = 3.23106e-07, No Iterations 1
Time = 0.09957s

DILUPBiCGStab:  Solving for T, Initial residual = 0.00032056, Final residual = 3.23106e-07, No Iterations 1
Time = 0.09958s

DILUPBiCGStab:  Solving for T, Initial residual = 0.000320559, Final residual = 3.23105e-07, No Iterations 1
Time = 0.09959s

DILUPBiCGStab:  Solving for T, Initial residual = 0.000320558, Final residual = 3.23105e-07, No Iterations 1
Time = 0.0996s

DILUPBiCGStab:  Solving for T, Initial residual = 0.000320557, Final residual = 3.23104e-07, No Iterations 1
Time = 0.09961s

DILUPBiCGStab:  Solving for T, Initial residual = 0.000320556, Final residual = 3.23104e-07, No Iterations 1
Time = 0.09962s

DILUPBiCGStab:  Solving for T, Initial residual = 0.000320555, Final residual = 3.23103e-07, No Iterations 1
Time = 0.09963s

DILUPBiCGStab:  Solving for T, Initial residual = 0.000320554, Final residual = 3.23103e-07, No Iterations 1
Time = 0.09964s

DILUPBiCGStab:  Solving for T, Initial residual = 0.000320553, Final residual = 3.23102e-07, No Iterations 1
Time = 0.09965s

DILUPBiCGStab:  Solving for T, Initial residual = 0.000320552, Final residual = 3.23102e-07, No Iterations 1
Time = 0.09966s

DILUPBiCGStab:  Solving for T, Initial residual = 0.000320551, Final residual = 3.23101e-07, No Iterations 1
Time = 0.09967s

DILUPBiCGStab:  Solving for T, Initial residual = 0.00032055, Final residual = 3.23101e-07, No Iterations 1
Time = 0.09968s

DILUPBiCGStab:  Solving for T, Initial residual = 0.000320549, Final residual = 3.231e-07, No Iterations 1
Time = 0.09969s

DILUPBiCGStab:  Solving for T, Initial residual = 0.000320548, Final residual = 3.231e-07, No Iterations 1
Time = 0.0997s

DILUPBiCGStab:  Solving for T, Initial residual = 0.000320547, Final residual = 3.23099e-07, No Iterations 1
Time = 0.09971s

DILUPBiCGStab:  Solving for T, Initial residual = 0.000320546, Final residual = 3.23099e-07, No Iterations 1
Time = 0.09972s

DILUPBiCGStab:  Solving for T, Initial residual = 0.000320545, Final residual = 3.23098e-07, No Iterations 1
Time = 0.09973s

DILUPBiCGStab:  Solving for T, Initial residual = 0.000320545, Final residual = 3.23098e-07, No Iterations 1
Time = 0.09974s

DILUPBiCGStab:  Solving for T, Initial residual = 0.000320544, Final residual = 3.23097e-07, No Iterations 1
Time = 0.09975s

DILUPBiCGStab:  Solving for T, Initial residual = 0.000320543, Final residual = 3.23097e-07, No Iterations 1
Time = 0.09976s

DILUPBiCGStab:  Solving for T, Initial residual = 0.000320542, Final residual = 3.23096e-07, No Iterations 1
Time = 0.09977s

DILUPBiCGStab:  Solving for T, Initial residual = 0.000320541, Final residual = 3.23096e-07, No Iterations 1
Time = 0.09978s

DILUPBiCGStab:  Solving for T, Initial residual = 0.00032054, Final residual = 3.23095e-07, No Iterations 1
Time = 0.09979s

DILUPBiCGStab:  Solving for T, Initial residual = 0.000320539, Final residual = 3.23095e-07, No Iterations 1
Time = 0.0998s

DILUPBiCGStab:  Solving for T, Initial residual = 0.000320538, Final residual = 3.23094e-07, No Iterations 1
Time = 0.09981s

DILUPBiCGStab:  Solving for T, Initial residual = 0.000320537, Final residual = 3.23094e-07, No Iterations 1
Time = 0.09982s

DILUPBiCGStab:  Solving for T, Initial residual = 0.000320536, Final residual = 3.23093e-07, No Iterations 1
Time = 0.09983s

DILUPBiCGStab:  Solving for T, Initial residual = 0.000320535, Final residual = 3.23093e-07, No Iterations 1
Time = 0.09984s

DILUPBiCGStab:  Solving for T, Initial residual = 0.000320534, Final residual = 3.23092e-07, No Iterations 1
Time = 0.09985s

DILUPBiCGStab:  Solving for T, Initial residual = 0.000320533, Final residual = 3.23092e-07, No Iterations 1
Time = 0.09986s

DILUPBiCGStab:  Solving for T, Initial residual = 0.000320532, Final residual = 3.23092e-07, No Iterations 1
Time = 0.09987s

DILUPBiCGStab:  Solving for T, Initial residual = 0.000320531, Final residual = 3.23091e-07, No Iterations 1
Time = 0.09988s

DILUPBiCGStab:  Solving for T, Initial residual = 0.000320531, Final residual = 3.23091e-07, No Iterations 1
Time = 0.09989s

DILUPBiCGStab:  Solving for T, Initial residual = 0.00032053, Final residual = 3.2309e-07, No Iterations 1
Time = 0.0999s

DILUPBiCGStab:  Solving for T, Initial residual = 0.000320529, Final residual = 3.2309e-07, No Iterations 1
Time = 0.09991s

DILUPBiCGStab:  Solving for T, Initial residual = 0.000320528, Final residual = 3.23089e-07, No Iterations 1
Time = 0.09992s

DILUPBiCGStab:  Solving for T, Initial residual = 0.000320527, Final residual = 3.23089e-07, No Iterations 1
Time = 0.09993s

DILUPBiCGStab:  Solving for T, Initial residual = 0.000320526, Final residual = 3.23088e-07, No Iterations 1
Time = 0.09994s

DILUPBiCGStab:  Solving for T, Initial residual = 0.000320525, Final residual = 3.23088e-07, No Iterations 1
Time = 0.09995s

DILUPBiCGStab:  Solving for T, Initial residual = 0.000320524, Final residual = 3.23087e-07, No Iterations 1
Time = 0.09996s

DILUPBiCGStab:  Solving for T, Initial residual = 0.000320523, Final residual = 3.23087e-07, No Iterations 1
Time = 0.09997s

DILUPBiCGStab:  Solving for T, Initial residual = 0.000320522, Final residual = 3.23086e-07, No Iterations 1
Time = 0.09998s

DILUPBiCGStab:  Solving for T, Initial residual = 0.000320521, Final residual = 3.23086e-07, No Iterations 1
Time = 0.09999s

DILUPBiCGStab:  Solving for T, Initial residual = 0.00032052, Final residual = 3.23085e-07, No Iterations 1
Time = 0.1s

DILUPBiCGStab:  Solving for T, Initial residual = 0.000320519, Final residual = 3.23085e-07, No Iterations 1
End

