/*---------------------------------------------------------------------------*\
  =========                 |
  \\      /  F ield         | OpenFOAM: The Open Source CFD Toolbox
   \\    /   O peration     | Website:  https://openfoam.org
    \\  /    A nd           | Version:  10
     \\/     M anipulation  |
\*---------------------------------------------------------------------------*/
Build  : 10-c4cf895ad8fa
Exec   : impesFoam
Date   : Feb 22 2024
Time   : 23:15:46
Host   : "HWLAP0350-EPS"
PID    : 15501
I/O    : uncollated
Case   : /home/ap2095/OpenFOAM/ap2095-10/run/injection
nProcs : 1
sigFpe : Enabling floating point exception trapping (FOAM_SIGFPE).
fileModificationChecking : Monitoring run-time modified files using timeStampMaster (fileModificationSkew 10)
allowSystemOperations : Allowing user-supplied system call operations

// * * * * * * * * * * * * * * * * * * * * * * * * * * * * * * * * * * * * * //

**********************************
Current version of PMF is 2310.0.0
**********************************

Create time

Create mesh for time = 0


Reading g
Reading pressure field p

Reading saturation field Sb

Reading transportProperties

Computing field phia from field Ua

Computing field phib from field Ub

Selecting porousMedium model => simplePorosity

Selecting capillarity model for field Sb => BrooksAndCorey

Brooks and Corey parameters for capillarity pressure model
{
    Sbmin 0.001
    Sbmax 0.999
    pc0 5
    alpha 0.2
    hd 0
} 

Selecting relativePermeability model for field Sb => BrooksAndCorey

Brooks and Corey parameters for relative permeability model
{
    Sbmin 0.001
    Sbmax 0.999
    n read file
    kramax 1
    krbmax 1
} 


Reading field U
Reading/calculating face flux field phi


Reading Event file 'injection.evt' ...OK!
{
  number of dates       = 2
  number of coordinates = 2
  number datas          = 4
}

Starting time loop

Coats CFL Number mean: 0 max: 0
deltaT = 1.2e-05
Time = 1.2e-05

diagonal:  Solving for Sb, Initial residual = 0, Final residual = 0, No Iterations 0
Saturation b:  Min(Sb) = 0.002 Max(Sb) = 0.00200006
DICPCG:  Solving for p, Initial residual = 1, Final residual = 8.88688e-13, No Iterations 112
ExecutionTime = 0.0625 s  ClockTime = 0 s

Coats CFL Number mean: 2.84367e-13 max: 5.71734e-13
deltaT = 1.44e-05
Time = 2.64e-05

diagonal:  Solving for Sb, Initial residual = 0, Final residual = 0, No Iterations 0
Saturation b:  Min(Sb) = 0.002 Max(Sb) = 0.00200012
DICPCG:  Solving for p, Initial residual = 1.39234e-09, Final residual = 8.6421e-13, No Iterations 53
ExecutionTime = 0.0625 s  ClockTime = 0 s

Coats CFL Number mean: 3.4124e-13 max: 6.86081e-13
deltaT = 1.728e-05
Time = 4.368e-05

diagonal:  Solving for Sb, Initial residual = 0, Final residual = 0, No Iterations 0
Saturation b:  Min(Sb) = 0.002 Max(Sb) = 0.0020002
DICPCG:  Solving for p, Initial residual = 1.15525e-09, Final residual = 8.21458e-13, No Iterations 45
ExecutionTime = 0.0625 s  ClockTime = 0 s

Coats CFL Number mean: 4.09488e-13 max: 8.23297e-13
deltaT = 2.0736e-05
Time = 6.4416e-05

diagonal:  Solving for Sb, Initial residual = 0, Final residual = 0, No Iterations 0
Saturation b:  Min(Sb) = 0.002 Max(Sb) = 0.0020003
DICPCG:  Solving for p, Initial residual = 1.38609e-09, Final residual = 9.34495e-13, No Iterations 45
ExecutionTime = 0.078125 s  ClockTime = 0 s

Coats CFL Number mean: 4.91386e-13 max: 9.87957e-13
deltaT = 2.48832e-05
Time = 8.92992e-05

diagonal:  Solving for Sb, Initial residual = 0, Final residual = 0, No Iterations 0
Saturation b:  Min(Sb) = 0.002 Max(Sb) = 0.00200041
DICPCG:  Solving for p, Initial residual = 1.66326e-09, Final residual = 9.53095e-13, No Iterations 48
ExecutionTime = 0.078125 s  ClockTime = 0 s

Coats CFL Number mean: 5.89664e-13 max: 1.18555e-12
deltaT = 2.98598e-05
Time = 0.000119159

diagonal:  Solving for Sb, Initial residual = 0, Final residual = 0, No Iterations 0
Saturation b:  Min(Sb) = 0.002 Max(Sb) = 0.00200055
DICPCG:  Solving for p, Initial residual = 1.99574e-09, Final residual = 8.97519e-13, No Iterations 52
ExecutionTime = 0.078125 s  ClockTime = 0 s

Coats CFL Number mean: 7.07596e-13 max: 1.42266e-12
deltaT = 3.58318e-05
Time = 0.000154991

diagonal:  Solving for Sb, Initial residual = 0, Final residual = 0, No Iterations 0
Saturation b:  Min(Sb) = 0.002 Max(Sb) = 0.00200072
DICPCG:  Solving for p, Initial residual = 2.39464e-09, Final residual = 9.11428e-13, No Iterations 53
ExecutionTime = 0.09375 s  ClockTime = 0 s

Coats CFL Number mean: 8.49116e-13 max: 1.70719e-12
deltaT = 4.29982e-05
Time = 0.000197989

diagonal:  Solving for Sb, Initial residual = 0, Final residual = 0, No Iterations 0
Saturation b:  Min(Sb) = 0.002 Max(Sb) = 0.00200091
DICPCG:  Solving for p, Initial residual = 2.87341e-09, Final residual = 7.80948e-13, No Iterations 54
ExecutionTime = 0.09375 s  ClockTime = 0 s

Coats CFL Number mean: 1.01894e-12 max: 2.04921e-12
deltaT = 5.15978e-05
Time = 0.000249587

diagonal:  Solving for Sb, Initial residual = 0, Final residual = 0, No Iterations 0
Saturation b:  Min(Sb) = 0.002 Max(Sb) = 0.00200115
DICPCG:  Solving for p, Initial residual = 3.44778e-09, Final residual = 9.39209e-13, No Iterations 54
ExecutionTime = 0.09375 s  ClockTime = 0 s

Coats CFL Number mean: 1.22273e-12 max: 2.46022e-12
deltaT = 6.19174e-05
Time = 0.000311504

diagonal:  Solving for Sb, Initial residual = 0, Final residual = 0, No Iterations 0
Saturation b:  Min(Sb) = 0.002 Max(Sb) = 0.00200144
DICPCG:  Solving for p, Initial residual = 4.13734e-09, Final residual = 7.75646e-13, No Iterations 55
ExecutionTime = 0.09375 s  ClockTime = 0 s

Coats CFL Number mean: 1.46727e-12 max: 2.95395e-12
deltaT = 7.43008e-05
Time = 0.000385805

diagonal:  Solving for Sb, Initial residual = 0, Final residual = 0, No Iterations 0
Saturation b:  Min(Sb) = 0.002 Max(Sb) = 0.00200178
DICPCG:  Solving for p, Initial residual = 4.96445e-09, Final residual = 9.32125e-13, No Iterations 55
ExecutionTime = 0.109375 s  ClockTime = 0 s

Coats CFL Number mean: 1.76073e-12 max: 3.54718e-12
deltaT = 8.9161e-05
Time = 0.000474966

diagonal:  Solving for Sb, Initial residual = 0, Final residual = 0, No Iterations 0
Saturation b:  Min(Sb) = 0.002 Max(Sb) = 0.00200219
DICPCG:  Solving for p, Initial residual = 5.95735e-09, Final residual = 8.47453e-13, No Iterations 56
ExecutionTime = 0.109375 s  ClockTime = 0 s

Coats CFL Number mean: 2.11288e-12 max: 4.26011e-12
deltaT = 0.000106993
Time = 0.000581959

diagonal:  Solving for Sb, Initial residual = 0, Final residual = 0, No Iterations 0
Saturation b:  Min(Sb) = 0.002 Max(Sb) = 0.00200269
DICPCG:  Solving for p, Initial residual = 7.14855e-09, Final residual = 8.97215e-13, No Iterations 57
ExecutionTime = 0.109375 s  ClockTime = 0 s

Coats CFL Number mean: 2.53545e-12 max: 5.11718e-12
deltaT = 0.000128392
Time = 0.000710351

diagonal:  Solving for Sb, Initial residual = 0, Final residual = 0, No Iterations 0
Saturation b:  Min(Sb) = 0.002 Max(Sb) = 0.00200328
DICPCG:  Solving for p, Initial residual = 8.57814e-09, Final residual = 7.84731e-13, No Iterations 58
ExecutionTime = 0.125 s  ClockTime = 0 s

Coats CFL Number mean: 3.04255e-12 max: 6.14789e-12
deltaT = 0.00015407
Time = 0.000864421

diagonal:  Solving for Sb, Initial residual = 0, Final residual = 0, No Iterations 0
Saturation b:  Min(Sb) = 0.002 Max(Sb) = 0.00200399
DICPCG:  Solving for p, Initial residual = 1.02935e-08, Final residual = 9.40586e-13, No Iterations 58
ExecutionTime = 0.125 s  ClockTime = 0 s

Coats CFL Number mean: 3.65106e-12 max: 7.38794e-12
deltaT = 0.000184884
Time = 0.00104931

diagonal:  Solving for Sb, Initial residual = 0, Final residual = 0, No Iterations 0
Saturation b:  Min(Sb) = 0.002 Max(Sb) = 0.00200485
DICPCG:  Solving for p, Initial residual = 1.23522e-08, Final residual = 9.11982e-13, No Iterations 59
ExecutionTime = 0.125 s  ClockTime = 0 s

Coats CFL Number mean: 4.38127e-12 max: 8.88062e-12
deltaT = 0.000221861
Time = 0.00127117

diagonal:  Solving for Sb, Initial residual = 0, Final residual = 0, No Iterations 0
Saturation b:  Min(Sb) = 0.002 Max(Sb) = 0.00200587
DICPCG:  Solving for p, Initial residual = 1.48224e-08, Final residual = 8.6552e-13, No Iterations 60
ExecutionTime = 0.140625 s  ClockTime = 0 s

Coats CFL Number mean: 5.25753e-12 max: 1.06785e-11
deltaT = 0.000266233
Time = 0.0015374

diagonal:  Solving for Sb, Initial residual = 0, Final residual = 0, No Iterations 0
Saturation b:  Min(Sb) = 0.002 Max(Sb) = 0.0020071
DICPCG:  Solving for p, Initial residual = 1.77867e-08, Final residual = 7.82945e-13, No Iterations 61
ExecutionTime = 0.140625 s  ClockTime = 0 s

Coats CFL Number mean: 6.30905e-12 max: 1.28456e-11
deltaT = 0.00031948
Time = 0.00185688

diagonal:  Solving for Sb, Initial residual = 0, Final residual = 0, No Iterations 0
Saturation b:  Min(Sb) = 0.002 Max(Sb) = 0.00200858
DICPCG:  Solving for p, Initial residual = 2.13438e-08, Final residual = 9.35775e-13, No Iterations 61
ExecutionTime = 0.140625 s  ClockTime = 0 s

Coats CFL Number mean: 7.57088e-12 max: 1.54599e-11
deltaT = 0.000383376
Time = 0.00224026

diagonal:  Solving for Sb, Initial residual = 0, Final residual = 0, No Iterations 0
Saturation b:  Min(Sb) = 0.002 Max(Sb) = 0.00201035
DICPCG:  Solving for p, Initial residual = 2.56126e-08, Final residual = 8.94252e-13, No Iterations 62
ExecutionTime = 0.15625 s  ClockTime = 0 s

Coats CFL Number mean: 9.08507e-12 max: 1.86171e-11
deltaT = 0.000460051
Time = 0.00270031

diagonal:  Solving for Sb, Initial residual = 0, Final residual = 0, No Iterations 0
Saturation b:  Min(Sb) = 0.002 Max(Sb) = 0.00201248
DICPCG:  Solving for p, Initial residual = 3.07349e-08, Final residual = 9.56565e-13, No Iterations 63
ExecutionTime = 0.15625 s  ClockTime = 0 s

Coats CFL Number mean: 1.09021e-11 max: 2.24347e-11
deltaT = 0.000552061
Time = 0.00325237

diagonal:  Solving for Sb, Initial residual = 0, Final residual = 0, No Iterations 0
Saturation b:  Min(Sb) = 0.002 Max(Sb) = 0.00201503
DICPCG:  Solving for p, Initial residual = 3.68818e-08, Final residual = 8.06398e-13, No Iterations 65
ExecutionTime = 0.171875 s  ClockTime = 0 s

Coats CFL Number mean: 1.30826e-11 max: 2.70575e-11
deltaT = 0.000662473
Time = 0.00391484

diagonal:  Solving for Sb, Initial residual = 0, Final residual = 0, No Iterations 0
Saturation b:  Min(Sb) = 0.002 Max(Sb) = 0.00201809
DICPCG:  Solving for p, Initial residual = 4.42579e-08, Final residual = 9.65409e-13, No Iterations 65
ExecutionTime = 0.171875 s  ClockTime = 0 s

Coats CFL Number mean: 1.56992e-11 max: 3.26651e-11
deltaT = 0.000794968
Time = 0.00470981

diagonal:  Solving for Sb, Initial residual = 0, Final residual = 0, No Iterations 0
Saturation b:  Min(Sb) = 0.002 Max(Sb) = 0.00202177
DICPCG:  Solving for p, Initial residual = 5.31096e-08, Final residual = 7.54674e-13, No Iterations 66
ExecutionTime = 0.171875 s  ClockTime = 0 s

Coats CFL Number mean: 1.88391e-11 max: 3.94816e-11
deltaT = 0.000953962
Time = 0.00566377

diagonal:  Solving for Sb, Initial residual = 0, Final residual = 0, No Iterations 0
Saturation b:  Min(Sb) = 0.002 Max(Sb) = 0.00202617
DICPCG:  Solving for p, Initial residual = 6.37312e-08, Final residual = 9.01654e-13, No Iterations 66
ExecutionTime = 0.1875 s  ClockTime = 0 s

Coats CFL Number mean: 2.2607e-11 max: 4.77876e-11
deltaT = 0.00114475
Time = 0.00680853

diagonal:  Solving for Sb, Initial residual = 0, Final residual = 0, No Iterations 0
Saturation b:  Min(Sb) = 0.002 Max(Sb) = 0.00203146
DICPCG:  Solving for p, Initial residual = 7.64777e-08, Final residual = 8.07046e-13, No Iterations 67
ExecutionTime = 0.1875 s  ClockTime = 0 s

Coats CFL Number mean: 2.71286e-11 max: 5.79379e-11
deltaT = 0.0013737
Time = 0.00818223

diagonal:  Solving for Sb, Initial residual = 0, Final residual = 0, No Iterations 0
Saturation b:  Min(Sb) = 0.002 Max(Sb) = 0.00203781
DICPCG:  Solving for p, Initial residual = 9.17733e-08, Final residual = 9.47068e-13, No Iterations 67
ExecutionTime = 0.203125 s  ClockTime = 0 s

Coats CFL Number mean: 3.25546e-11 max: 7.03839e-11
deltaT = 0.00164845
Time = 0.00983068

diagonal:  Solving for Sb, Initial residual = 0, Final residual = 0, No Iterations 0
Saturation b:  Min(Sb) = 0.002 Max(Sb) = 0.00204543
DICPCG:  Solving for p, Initial residual = 1.10128e-07, Final residual = 8.40332e-13, No Iterations 68
ExecutionTime = 0.203125 s  ClockTime = 0 s

Coats CFL Number mean: 3.90659e-11 max: 8.57053e-11
deltaT = 0.00197813
Time = 0.0118088

diagonal:  Solving for Sb, Initial residual = 0, Final residual = 0, No Iterations 0
Saturation b:  Min(Sb) = 0.002 Max(Sb) = 0.00205457
DICPCG:  Solving for p, Initial residual = 1.32155e-07, Final residual = 7.1561e-13, No Iterations 69
ExecutionTime = 0.203125 s  ClockTime = 0 s

Coats CFL Number mean: 4.68796e-11 max: 1.04653e-10
deltaT = 0.00237376
Time = 0.0141826

diagonal:  Solving for Sb, Initial residual = 0, Final residual = 0, No Iterations 0
Saturation b:  Min(Sb) = 0.002 Max(Sb) = 0.00206554
DICPCG:  Solving for p, Initial residual = 1.58586e-07, Final residual = 8.62453e-13, No Iterations 69
ExecutionTime = 0.21875 s  ClockTime = 0 s

Coats CFL Number mean: 5.62564e-11 max: 1.2821e-10
deltaT = 0.00284851
Time = 0.0170311

diagonal:  Solving for Sb, Initial residual = 0, Final residual = 0, No Iterations 0
Saturation b:  Min(Sb) = 0.002 Max(Sb) = 0.00207871
DICPCG:  Solving for p, Initial residual = 1.90305e-07, Final residual = 7.65285e-13, No Iterations 70
ExecutionTime = 0.21875 s  ClockTime = 0 s

Coats CFL Number mean: 6.75088e-11 max: 1.57677e-10
deltaT = 0.00341821
Time = 0.0204493

diagonal:  Solving for Sb, Initial residual = 0, Final residual = 0, No Iterations 0
Saturation b:  Min(Sb) = 0.002 Max(Sb) = 0.0020945
DICPCG:  Solving for p, Initial residual = 2.28368e-07, Final residual = 9.18826e-13, No Iterations 70
ExecutionTime = 0.234375 s  ClockTime = 0 s

Coats CFL Number mean: 8.10123e-11 max: 1.94794e-10
deltaT = 0.00410186
Time = 0.0245512

diagonal:  Solving for Sb, Initial residual = 0, Final residual = 0, No Iterations 0
Saturation b:  Min(Sb) = 0.002 Max(Sb) = 0.00211346
DICPCG:  Solving for p, Initial residual = 2.74044e-07, Final residual = 8.42644e-13, No Iterations 71
ExecutionTime = 0.234375 s  ClockTime = 0 s

Coats CFL Number mean: 9.72174e-11 max: 2.4192e-10
deltaT = 0.00492223
Time = 0.0294734

diagonal:  Solving for Sb, Initial residual = 0, Final residual = 0, No Iterations 0
Saturation b:  Min(Sb) = 0.002 Max(Sb) = 0.00213621
DICPCG:  Solving for p, Initial residual = 3.28857e-07, Final residual = 6.92867e-13, No Iterations 72
ExecutionTime = 0.25 s  ClockTime = 0 s

Coats CFL Number mean: 1.16665e-10 max: 3.02287e-10
deltaT = 0.00590667
Time = 0.0353801

diagonal:  Solving for Sb, Initial residual = 0, Final residual = 0, No Iterations 0
Saturation b:  Min(Sb) = 0.002 Max(Sb) = 0.0021635
DICPCG:  Solving for p, Initial residual = 3.94635e-07, Final residual = 8.31382e-13, No Iterations 72
ExecutionTime = 0.25 s  ClockTime = 0 s

Coats CFL Number mean: 1.40003e-10 max: 3.80383e-10
deltaT = 0.00708801
Time = 0.0424681

diagonal:  Solving for Sb, Initial residual = 0, Final residual = 0, No Iterations 0
Saturation b:  Min(Sb) = 0.002 Max(Sb) = 0.00219626
DICPCG:  Solving for p, Initial residual = 4.7357e-07, Final residual = 9.97866e-13, No Iterations 72
ExecutionTime = 0.25 s  ClockTime = 0 s

Coats CFL Number mean: 1.68012e-10 max: 4.82523e-10
deltaT = 0.0085056
Time = 0.0509737

diagonal:  Solving for Sb, Initial residual = 0, Final residual = 0, No Iterations 0
Saturation b:  Min(Sb) = 0.002 Max(Sb) = 0.00223557
DICPCG:  Solving for p, Initial residual = 5.68297e-07, Final residual = 9.10525e-13, No Iterations 73
ExecutionTime = 0.265625 s  ClockTime = 0 s

Coats CFL Number mean: 2.01626e-10 max: 6.17705e-10
deltaT = 0.0102067
Time = 0.0611804

diagonal:  Solving for Sb, Initial residual = 0, Final residual = 0, No Iterations 0
Saturation b:  Min(Sb) = 0.002 Max(Sb) = 0.00228273
DICPCG:  Solving for p, Initial residual = 6.81974e-07, Final residual = 8.34276e-13, No Iterations 74
ExecutionTime = 0.265625 s  ClockTime = 0 s

Coats CFL Number mean: 2.41969e-10 max: 7.98921e-10
deltaT = 0.012248
Time = 0.0734284

diagonal:  Solving for Sb, Initial residual = 0, Final residual = 0, No Iterations 0
Saturation b:  Min(Sb) = 0.002 Max(Sb) = 0.00233934
DICPCG:  Solving for p, Initial residual = 8.18395e-07, Final residual = 8.01115e-13, No Iterations 75
ExecutionTime = 0.265625 s  ClockTime = 0 s

Coats CFL Number mean: 2.90389e-10 max: 1.04518e-09
deltaT = 0.0146976
Time = 0.088126

diagonal:  Solving for Sb, Initial residual = 0, Final residual = 0, No Iterations 0
Saturation b:  Min(Sb) = 0.002 Max(Sb) = 0.00240726
DICPCG:  Solving for p, Initial residual = 9.82112e-07, Final residual = 9.60073e-13, No Iterations 75
ExecutionTime = 0.28125 s  ClockTime = 0 s

Coats CFL Number mean: 3.48508e-10 max: 1.38465e-09
deltaT = 0.0176371
Time = 0.105763

diagonal:  Solving for Sb, Initial residual = 0, Final residual = 0, No Iterations 0
Saturation b:  Min(Sb) = 0.002 Max(Sb) = 0.00248877
DICPCG:  Solving for p, Initial residual = 1.17859e-06, Final residual = 8.4141e-13, No Iterations 76
ExecutionTime = 0.28125 s  ClockTime = 0 s

Coats CFL Number mean: 4.18271e-10 max: 1.85963e-09
deltaT = 0.0211645
Time = 0.126928

diagonal:  Solving for Sb, Initial residual = 0, Final residual = 0, No Iterations 0
Saturation b:  Min(Sb) = 0.002 Max(Sb) = 0.00258657
DICPCG:  Solving for p, Initial residual = 1.41438e-06, Final residual = 7.48769e-13, No Iterations 77
ExecutionTime = 0.296875 s  ClockTime = 0 s

Coats CFL Number mean: 5.02018e-10 max: 2.5344e-09
deltaT = 0.0253973
Time = 0.152325

diagonal:  Solving for Sb, Initial residual = 0, Final residual = 0, No Iterations 0
Saturation b:  Min(Sb) = 0.002 Max(Sb) = 0.00270394
DICPCG:  Solving for p, Initial residual = 1.69738e-06, Final residual = 8.98539e-13, No Iterations 77
ExecutionTime = 0.296875 s  ClockTime = 0 s

Coats CFL Number mean: 6.02568e-10 max: 3.5079e-09
deltaT = 0.0304767
Time = 0.182802

diagonal:  Solving for Sb, Initial residual = 0, Final residual = 0, No Iterations 0
Saturation b:  Min(Sb) = 0.002 Max(Sb) = 0.00284479
DICPCG:  Solving for p, Initial residual = 2.03701e-06, Final residual = 8.34674e-13, No Iterations 78
ExecutionTime = 0.296875 s  ClockTime = 0 s

Coats CFL Number mean: 7.23305e-10 max: 4.93411e-09
deltaT = 0.0365719
Time = 0.219374

diagonal:  Solving for Sb, Initial residual = 0, Final residual = 0, No Iterations 0
Saturation b:  Min(Sb) = 0.002 Max(Sb) = 0.0030138
DICPCG:  Solving for p, Initial residual = 2.44465e-06, Final residual = 6.37719e-13, No Iterations 79
ExecutionTime = 0.3125 s  ClockTime = 0 s

Coats CFL Number mean: 8.68319e-10 max: 7.05554e-09
deltaT = 0.0438862
Time = 0.26326

diagonal:  Solving for Sb, Initial residual = 0, Final residual = 0, No Iterations 0
Saturation b:  Min(Sb) = 0.002 Max(Sb) = 0.00321661
DICPCG:  Solving for p, Initial residual = 2.93392e-06, Final residual = 7.65445e-13, No Iterations 79
ExecutionTime = 0.3125 s  ClockTime = 0 s

Coats CFL Number mean: 1.04254e-09 max: 1.02579e-08
deltaT = 0.0526632
Time = 0.315923

diagonal:  Solving for Sb, Initial residual = 0, Final residual = 0, No Iterations 0
Saturation b:  Min(Sb) = 0.002 Max(Sb) = 0.00345998
DICPCG:  Solving for p, Initial residual = 3.52119e-06, Final residual = 9.1892e-13, No Iterations 79
ExecutionTime = 0.328125 s  ClockTime = 0 s

Coats CFL Number mean: 1.25194e-09 max: 1.5161e-08
deltaT = 0.0631951
Time = 0.379118

diagonal:  Solving for Sb, Initial residual = 0, Final residual = 0, No Iterations 0
Saturation b:  Min(Sb) = 0.002 Max(Sb) = 0.00375203
DICPCG:  Solving for p, Initial residual = 4.22611e-06, Final residual = 7.26753e-13, No Iterations 80
ExecutionTime = 0.328125 s  ClockTime = 0 s

Coats CFL Number mean: 1.50375e-09 max: 2.27692e-08
deltaT = 0.0758334
Time = 0.454951

diagonal:  Solving for Sb, Initial residual = 0, Final residual = 0, No Iterations 0
Saturation b:  Min(Sb) = 0.002 Max(Sb) = 0.00410247
DICPCG:  Solving for p, Initial residual = 5.07232e-06, Final residual = 8.72671e-13, No Iterations 80
ExecutionTime = 0.328125 s  ClockTime = 0 s

Coats CFL Number mean: 1.80681e-09 max: 3.47248e-08
deltaT = 0.0910001
Time = 0.545952

diagonal:  Solving for Sb, Initial residual = 0, Final residual = 0, No Iterations 0
Saturation b:  Min(Sb) = 0.002 Max(Sb) = 0.00452301
DICPCG:  Solving for p, Initial residual = 6.08829e-06, Final residual = 8.05653e-13, No Iterations 81
ExecutionTime = 0.34375 s  ClockTime = 0 s

Coats CFL Number mean: 2.17197e-09 max: 5.37326e-08
deltaT = 0.109199
Time = 0.65515

diagonal:  Solving for Sb, Initial residual = 0, Final residual = 0, No Iterations 0
Saturation b:  Min(Sb) = 0.002 Max(Sb) = 0.00502765
DICPCG:  Solving for p, Initial residual = 7.30803e-06, Final residual = 9.6786e-13, No Iterations 81
ExecutionTime = 0.34375 s  ClockTime = 0 s

Coats CFL Number mean: 2.61257e-09 max: 8.42743e-08
deltaT = 0.131038
Time = 0.786188

diagonal:  Solving for Sb, Initial residual = 0, Final residual = 0, No Iterations 0
Saturation b:  Min(Sb) = 0.002 Max(Sb) = 0.00563322
DICPCG:  Solving for p, Initial residual = 8.77267e-06, Final residual = 9.86038e-13, No Iterations 82
ExecutionTime = 0.359375 s  ClockTime = 0 s

Coats CFL Number mean: 3.14536e-09 max: 1.33826e-07
deltaT = 0.157243
Time = 0.943431

diagonal:  Solving for Sb, Initial residual = 0, Final residual = 0, No Iterations 0
Saturation b:  Min(Sb) = 0.002 Max(Sb) = 0.00635988
DICPCG:  Solving for p, Initial residual = 1.05315e-05, Final residual = 8.18553e-13, No Iterations 83
ExecutionTime = 0.359375 s  ClockTime = 0 s

Coats CFL Number mean: 3.79152e-09 max: 2.14915e-07
deltaT = 0.188686
Time = 1.13212

diagonal:  Solving for Sb, Initial residual = 0, Final residual = 0, No Iterations 0
Saturation b:  Min(Sb) = 0.002 Max(Sb) = 0.00723185
DICPCG:  Solving for p, Initial residual = 1.26439e-05, Final residual = 9.8399e-13, No Iterations 83
ExecutionTime = 0.375 s  ClockTime = 0 s

Coats CFL Number mean: 4.57839e-09 max: 3.48634e-07
deltaT = 0.226419
Time = 1.35854

diagonal:  Solving for Sb, Initial residual = 0, Final residual = 0, No Iterations 0
Saturation b:  Min(Sb) = 0.002 Max(Sb) = 0.00827819
DICPCG:  Solving for p, Initial residual = 1.51816e-05, Final residual = 8.02063e-13, No Iterations 84
ExecutionTime = 0.375 s  ClockTime = 0 s

Coats CFL Number mean: 5.54218e-09 max: 5.70643e-07
deltaT = 0.271695
Time = 1.63023

diagonal:  Solving for Sb, Initial residual = 0, Final residual = 0, No Iterations 0
Saturation b:  Min(Sb) = 0.002 Max(Sb) = 0.00953377
DICPCG:  Solving for p, Initial residual = 1.82308e-05, Final residual = 9.65229e-13, No Iterations 84
ExecutionTime = 0.375 s  ClockTime = 0 s

Coats CFL Number mean: 6.73192e-09 max: 9.41415e-07
deltaT = 0.32603
Time = 1.95626

diagonal:  Solving for Sb, Initial residual = 0, Final residual = 0, No Iterations 0
Saturation b:  Min(Sb) = 0.002 Max(Sb) = 0.0110404
DICPCG:  Solving for p, Initial residual = 2.18959e-05, Final residual = 7.5484e-13, No Iterations 85
ExecutionTime = 0.390625 s  ClockTime = 0 s

Coats CFL Number mean: 8.21643e-09 max: 1.56385e-06
deltaT = 0.391236
Time = 2.3475

diagonal:  Solving for Sb, Initial residual = 0, Final residual = 0, No Iterations 0
Saturation b:  Min(Sb) = 0.002 Max(Sb) = 0.0128484
DICPCG:  Solving for p, Initial residual = 2.63026e-05, Final residual = 9.09713e-13, No Iterations 85
ExecutionTime = 0.390625 s  ClockTime = 0 s

Coats CFL Number mean: 1.0095e-08 max: 2.61344e-06
deltaT = 0.469484
Time = 2.81698

diagonal:  Solving for Sb, Initial residual = 0, Final residual = 0, No Iterations 0
Saturation b:  Min(Sb) = 0.002 Max(Sb) = 0.015018
DICPCG:  Solving for p, Initial residual = 3.16026e-05, Final residual = 7.34585e-13, No Iterations 86
ExecutionTime = 0.40625 s  ClockTime = 0 s

Coats CFL Number mean: 1.25161e-08 max: 4.39004e-06
deltaT = 0.56338
Time = 3.38036

diagonal:  Solving for Sb, Initial residual = 0, Final residual = 0, No Iterations 0
Saturation b:  Min(Sb) = 0.002 Max(Sb) = 0.0176215
DICPCG:  Solving for p, Initial residual = 3.79799e-05, Final residual = 8.86509e-13, No Iterations 86
ExecutionTime = 0.40625 s  ClockTime = 0 s

Coats CFL Number mean: 1.57083e-08 max: 7.40703e-06
deltaT = 0.676041
Time = 4.0564

diagonal:  Solving for Sb, Initial residual = 0, Final residual = 0, No Iterations 0
Saturation b:  Min(Sb) = 0.002 Max(Sb) = 0.0207456
DICPCG:  Solving for p, Initial residual = 4.56563e-05, Final residual = 6.56509e-13, No Iterations 87
ExecutionTime = 0.421875 s  ClockTime = 0 s

Coats CFL Number mean: 2.00338e-08 max: 1.25444e-05
deltaT = 0.811161
Time = 4.86756

diagonal:  Solving for Sb, Initial residual = 0, Final residual = 0, No Iterations 0
Saturation b:  Min(Sb) = 0.002 Max(Sb) = 0.0244941
DICPCG:  Solving for p, Initial residual = 5.48984e-05, Final residual = 7.93342e-13, No Iterations 87
ExecutionTime = 0.421875 s  ClockTime = 0 s

Coats CFL Number mean: 2.60789e-08 max: 2.13108e-05
deltaT = 0.973331
Time = 5.84089

diagonal:  Solving for Sb, Initial residual = 0, Final residual = 0, No Iterations 0
Saturation b:  Min(Sb) = 0.002 Max(Sb) = 0.0289919
DICPCG:  Solving for p, Initial residual = 6.6041e-05, Final residual = 9.59704e-13, No Iterations 87
ExecutionTime = 0.4375 s  ClockTime = 0 s

Coats CFL Number mean: 3.482e-08 max: 3.63036e-05
deltaT = 1.16795
Time = 7.00884

diagonal:  Solving for Sb, Initial residual = 0, Final residual = 0, No Iterations 0
Saturation b:  Min(Sb) = 0.002 Max(Sb) = 0.034389
DICPCG:  Solving for p, Initial residual = 7.9485e-05, Final residual = 7.80554e-13, No Iterations 88
ExecutionTime = 0.4375 s  ClockTime = 0 s

Coats CFL Number mean: 4.78957e-08 max: 6.19892e-05
deltaT = 1.40134
Time = 8.41019

diagonal:  Solving for Sb, Initial residual = 0, Final residual = 0, No Iterations 0
Saturation b:  Min(Sb) = 0.002 Max(Sb) = 0.0408646
DICPCG:  Solving for p, Initial residual = 9.57093e-05, Final residual = 9.43686e-13, No Iterations 88
ExecutionTime = 0.453125 s  ClockTime = 0 s

Coats CFL Number mean: 6.80903e-08 max: 0.000106041
deltaT = 1.68124
Time = 10.0914

diagonal:  Solving for Sb, Initial residual = 0, Final residual = 0, No Iterations 0
Saturation b:  Min(Sb) = 0.002 Max(Sb) = 0.0486334
DICPCG:  Solving for p, Initial residual = 0.00011531, Final residual = 7.84976e-13, No Iterations 89
ExecutionTime = 0.453125 s  ClockTime = 0 s

Coats CFL Number mean: 1.00203e-07 max: 0.000181674
deltaT = 2.01694
Time = 12.1084

diagonal:  Solving for Sb, Initial residual = 0, Final residual = 0, No Iterations 0
Saturation b:  Min(Sb) = 0.002 Max(Sb) = 0.0579532
DICPCG:  Solving for p, Initial residual = 0.000139021, Final residual = 9.45349e-13, No Iterations 89
ExecutionTime = 0.46875 s  ClockTime = 0 s

Coats CFL Number mean: 1.52571e-07 max: 0.000311653
deltaT = 2.42013
Time = 14.5285

diagonal:  Solving for Sb, Initial residual = 0, Final residual = 0, No Iterations 0
Saturation b:  Min(Sb) = 0.002 Max(Sb) = 0.0691357
DICPCG:  Solving for p, Initial residual = 0.000167777, Final residual = 6.9015e-13, No Iterations 90
ExecutionTime = 0.46875 s  ClockTime = 0 s

Coats CFL Number mean: 2.39854e-07 max: 0.000535366
deltaT = 2.90359
Time = 17.4321

diagonal:  Solving for Sb, Initial residual = 0, Final residual = 0, No Iterations 0
Saturation b:  Min(Sb) = 0.002 Max(Sb) = 0.0825515
DICPCG:  Solving for p, Initial residual = 0.000202643, Final residual = 8.3059e-13, No Iterations 90
ExecutionTime = 0.484375 s  ClockTime = 0 s

Coats CFL Number mean: 3.8777e-07 max: 0.000920454
deltaT = 3.48431
Time = 20.9164

diagonal:  Solving for Sb, Initial residual = 0, Final residual = 0, No Iterations 0
Saturation b:  Min(Sb) = 0.002 Max(Sb) = 0.0986494
DICPCG:  Solving for p, Initial residual = 0.000245033, Final residual = 9.9234e-13, No Iterations 90
ExecutionTime = 0.484375 s  ClockTime = 0 s

Coats CFL Number mean: 6.42247e-07 max: 0.00158422
deltaT = 4.18059
Time = 25.097

diagonal:  Solving for Sb, Initial residual = 0, Final residual = 0, No Iterations 0
Saturation b:  Min(Sb) = 0.002 Max(Sb) = 0.117962
DICPCG:  Solving for p, Initial residual = 0.000296521, Final residual = 6.95514e-13, No Iterations 91
ExecutionTime = 0.484375 s  ClockTime = 0 s

Coats CFL Number mean: 1.08498e-06 max: 0.00272808
deltaT = 5.01502
Time = 30.112

diagonal:  Solving for Sb, Initial residual = 0, Final residual = 0, No Iterations 0
Saturation b:  Min(Sb) = 0.002 Max(Sb) = 0.141124
DICPCG:  Solving for p, Initial residual = 0.000359023, Final residual = 8.28754e-13, No Iterations 91
ExecutionTime = 0.5 s  ClockTime = 0 s

Coats CFL Number mean: 1.86283e-06 max: 0.00469895
deltaT = 6.01681
Time = 36.1288

diagonal:  Solving for Sb, Initial residual = 0, Final residual = 0, No Iterations 0
Saturation b:  Min(Sb) = 0.002 Max(Sb) = 0.168902
DICPCG:  Solving for p, Initial residual = 0.000434875, Final residual = 6.99293e-13, No Iterations 92
ExecutionTime = 0.515625 s  ClockTime = 0 s

Coats CFL Number mean: 3.24289e-06 max: 0.00809713
deltaT = 7.21493
Time = 43.3438

diagonal:  Solving for Sb, Initial residual = 0, Final residual = 0, No Iterations 0
Saturation b:  Min(Sb) = 0.002 Max(Sb) = 0.202185
DICPCG:  Solving for p, Initial residual = 0.00052613, Final residual = 8.64779e-13, No Iterations 92
ExecutionTime = 0.515625 s  ClockTime = 0 s

Coats CFL Number mean: 5.70747e-06 max: 0.0139433
deltaT = 8.65036
Time = 51.9941

diagonal:  Solving for Sb, Initial residual = 0, Final residual = 0, No Iterations 0
Saturation b:  Min(Sb) = 0.002 Max(Sb) = 0.242027
DICPCG:  Solving for p, Initial residual = 0.000634821, Final residual = 6.53607e-13, No Iterations 93
ExecutionTime = 0.515625 s  ClockTime = 0 s

Coats CFL Number mean: 1.01447e-05 max: 0.0239929
deltaT = 10.3732
Time = 62.3673

diagonal:  Solving for Sb, Initial residual = 0, Final residual = 0, No Iterations 0
Saturation b:  Min(Sb) = 0.002 Max(Sb) = 0.289654
DICPCG:  Solving for p, Initial residual = 0.000761415, Final residual = 9.46641e-13, No Iterations 93
ExecutionTime = 0.53125 s  ClockTime = 0 s

Coats CFL Number mean: 1.82003e-05 max: 0.0412445
deltaT = 12.4374
Time = 74.8047

diagonal:  Solving for Sb, Initial residual = 0, Final residual = 0, No Iterations 0
Saturation b:  Min(Sb) = 0.002 Max(Sb) = 0.346385
DICPCG:  Solving for p, Initial residual = 0.000904089, Final residual = 9.5489e-13, No Iterations 94
ExecutionTime = 0.53125 s  ClockTime = 0 s

Coats CFL Number mean: 3.29291e-05 max: 0.0707263
deltaT = 14.9248
Time = 89.7295

diagonal:  Solving for Sb, Initial residual = 0, Final residual = 0, No Iterations 0
Saturation b:  Min(Sb) = 0.002 Max(Sb) = 0.413539
DICPCG:  Solving for p, Initial residual = 0.0010741, Final residual = 9.78643e-13, No Iterations 95
ExecutionTime = 0.546875 s  ClockTime = 0 s

Coats CFL Number mean: 6.01496e-05 max: 0.120894
deltaT = 17.8555
Time = 107.585

diagonal:  Solving for Sb, Initial residual = 0, Final residual = 0, No Iterations 0
Saturation b:  Min(Sb) = 0.002 Max(Sb) = 0.49158
DICPCG:  Solving for p, Initial residual = 0.00125696, Final residual = 7.97282e-13, No Iterations 96
ExecutionTime = 0.546875 s  ClockTime = 0 s

Coats CFL Number mean: 0.000110258 max: 0.204064
deltaT = 21.3643
Time = 128.949

diagonal:  Solving for Sb, Initial residual = 0, Final residual = 0, No Iterations 0
Saturation b:  Min(Sb) = 0.002 Max(Sb) = 0.579181
DICPCG:  Solving for p, Initial residual = 0.00141971, Final residual = 8.95668e-13, No Iterations 96
ExecutionTime = 0.5625 s  ClockTime = 0 s

Coats CFL Number mean: 0.000200374 max: 0.33647
deltaT = 25.6371
Time = 154.586

diagonal:  Solving for Sb, Initial residual = 0, Final residual = 0, No Iterations 0
Saturation b:  Min(Sb) = 0.002 Max(Sb) = 0.669563
DICPCG:  Solving for p, Initial residual = 0.00145682, Final residual = 8.14428e-13, No Iterations 96
ExecutionTime = 0.5625 s  ClockTime = 0 s

Coats CFL Number mean: 0.000317344 max: 0.513876
deltaT = 29.3661
Time = 183.953

diagonal:  Solving for Sb, Initial residual = 0, Final residual = 0, No Iterations 0
Saturation b:  Min(Sb) = 0.002 Max(Sb) = 0.739324
DICPCG:  Solving for p, Initial residual = 0.00124918, Final residual = 7.56189e-13, No Iterations 98
ExecutionTime = 0.578125 s  ClockTime = 0 s

Coats CFL Number mean: 0.000293327 max: 0.574363
deltaT = 32.9866
Time = 216.939

diagonal:  Solving for Sb, Initial residual = 0, Final residual = 0, No Iterations 0
Saturation b:  Min(Sb) = 0.002 Max(Sb) = 0.775403
DICPCG:  Solving for p, Initial residual = 0.001221, Final residual = 9.83796e-13, No Iterations 97
ExecutionTime = 0.578125 s  ClockTime = 0 s

Coats CFL Number mean: 0.000179267 max: 0.366592
deltaT = 39.5294
Time = 256.469

diagonal:  Solving for Sb, Initial residual = 0, Final residual = 0, No Iterations 0
Saturation b:  Min(Sb) = 0.002 Max(Sb) = 0.801248
DICPCG:  Solving for p, Initial residual = 0.00160149, Final residual = 7.87584e-13, No Iterations 97
ExecutionTime = 0.59375 s  ClockTime = 0 s

Coats CFL Number mean: 0.000121087 max: 0.266616
deltaT = 47.4353
Time = 303.904

diagonal:  Solving for Sb, Initial residual = 0, Final residual = 0, No Iterations 0
Saturation b:  Min(Sb) = 0.002 Max(Sb) = 0.820553
DICPCG:  Solving for p, Initial residual = 0.00198664, Final residual = 9.51242e-13, No Iterations 96
ExecutionTime = 0.59375 s  ClockTime = 0 s

Coats CFL Number mean: 0.000234931 max: 0.742658
deltaT = 47.4353
Time = 351.339

diagonal:  Solving for Sb, Initial residual = 0, Final residual = 0, No Iterations 0
Saturation b:  Min(Sb) = 0.002 Max(Sb) = 0.830324
DICPCG:  Solving for p, Initial residual = 0.00194631, Final residual = 9.9472e-13, No Iterations 96
ExecutionTime = 0.609375 s  ClockTime = 0 s

Coats CFL Number mean: 0.000528838 max: 1.28359
deltaT = 27.6706
Time = 379.01

diagonal:  Solving for Sb, Initial residual = 0, Final residual = 0, No Iterations 0
Saturation b:  Min(Sb) = 0.002 Max(Sb) = 0.833795
DICPCG:  Solving for p, Initial residual = 0.00101176, Final residual = 5.28198e-13, No Iterations 96
ExecutionTime = 0.609375 s  ClockTime = 0 s

Coats CFL Number mean: 0.00040015 max: 0.812326
deltaT = 25.5303
Time = 404.54

diagonal:  Solving for Sb, Initial residual = 0, Final residual = 0, No Iterations 0
Saturation b:  Min(Sb) = 0.002 Max(Sb) = 0.835336
DICPCG:  Solving for p, Initial residual = 0.000840649, Final residual = 5.67359e-13, No Iterations 96
ExecutionTime = 0.625 s  ClockTime = 0 s

Coats CFL Number mean: 0.00040016 max: 0.73901
deltaT = 25.8172
Time = 430.357

diagonal:  Solving for Sb, Initial residual = 0, Final residual = 0, No Iterations 0
Saturation b:  Min(Sb) = 0.002 Max(Sb) = 0.836975
DICPCG:  Solving for p, Initial residual = 0.000819258, Final residual = 6.12071e-13, No Iterations 96
ExecutionTime = 0.625 s  ClockTime = 0 s

Coats CFL Number mean: 0.000391626 max: 0.70201
deltaT = 27.528
Time = 457.885

diagonal:  Solving for Sb, Initial residual = 0, Final residual = 0, No Iterations 0
Saturation b:  Min(Sb) = 0.002 Max(Sb) = 0.83863
DICPCG:  Solving for p, Initial residual = 0.000955226, Final residual = 7.22899e-13, No Iterations 96
ExecutionTime = 0.640625 s  ClockTime = 0 s

Coats CFL Number mean: 0.000395665 max: 0.660435
deltaT = 30.484
Time = 488.369

diagonal:  Solving for Sb, Initial residual = 0, Final residual = 0, No Iterations 0
Saturation b:  Min(Sb) = 0.002 Max(Sb) = 0.840278
DICPCG:  Solving for p, Initial residual = 0.00113233, Final residual = 9.85309e-13, No Iterations 96
ExecutionTime = 0.640625 s  ClockTime = 0 s

Coats CFL Number mean: 0.000434571 max: 0.650978
deltaT = 33.922
Time = 522.291

diagonal:  Solving for Sb, Initial residual = 0, Final residual = 0, No Iterations 0
Saturation b:  Min(Sb) = 0.002 Max(Sb) = 0.841851
DICPCG:  Solving for p, Initial residual = 0.00127757, Final residual = 7.23628e-13, No Iterations 98
ExecutionTime = 0.65625 s  ClockTime = 0 s

Coats CFL Number mean: 0.00051748 max: 0.707577
deltaT = 35.8217
Time = 558.113

diagonal:  Solving for Sb, Initial residual = 0, Final residual = 0, No Iterations 0
Saturation b:  Min(Sb) = 0.002 Max(Sb) = 0.843213
DICPCG:  Solving for p, Initial residual = 0.00127932, Final residual = 8.72511e-13, No Iterations 96
ExecutionTime = 0.65625 s  ClockTime = 1 s

Coats CFL Number mean: 0.000604095 max: 0.92945
deltaT = 28.8434
Time = 586.956

diagonal:  Solving for Sb, Initial residual = 0, Final residual = 0, No Iterations 0
Saturation b:  Min(Sb) = 0.002 Max(Sb) = 0.844089
DICPCG:  Solving for p, Initial residual = 0.000979013, Final residual = 8.30159e-13, No Iterations 96
ExecutionTime = 0.671875 s  ClockTime = 1 s

Coats CFL Number mean: 0.000523994 max: 0.764445
deltaT = 28.2887
Time = 615.245

diagonal:  Solving for Sb, Initial residual = 0, Final residual = 0, No Iterations 0
Saturation b:  Min(Sb) = 0.002 Max(Sb) = 0.844796
DICPCG:  Solving for p, Initial residual = 0.000918717, Final residual = 9.71059e-13, No Iterations 96
ExecutionTime = 0.671875 s  ClockTime = 1 s

Coats CFL Number mean: 0.000575431 max: 0.754321
deltaT = 28.1074
Time = 643.353

diagonal:  Solving for Sb, Initial residual = 0, Final residual = 0, No Iterations 0
Saturation b:  Min(Sb) = 0.002 Max(Sb) = 0.845368
DICPCG:  Solving for p, Initial residual = 0.000878684, Final residual = 9.25544e-13, No Iterations 93
ExecutionTime = 0.6875 s  ClockTime = 1 s

Coats CFL Number mean: 0.00062935 max: 0.721089
deltaT = 29.0443
Time = 672.397

diagonal:  Solving for Sb, Initial residual = 0, Final residual = 0, No Iterations 0
Saturation b:  Min(Sb) = 0.002 Max(Sb) = 0.84585
DICPCG:  Solving for p, Initial residual = 0.000860136, Final residual = 7.11628e-13, No Iterations 98
ExecutionTime = 0.6875 s  ClockTime = 1 s

Coats CFL Number mean: 0.000681921 max: 0.749198
deltaT = 29.0443
Time = 701.441

diagonal:  Solving for Sb, Initial residual = 0, Final residual = 0, No Iterations 0
Saturation b:  Min(Sb) = 0.002 Max(Sb) = 0.846234
DICPCG:  Solving for p, Initial residual = 0.000866386, Final residual = 8.25213e-13, No Iterations 98
ExecutionTime = 0.703125 s  ClockTime = 1 s

Coats CFL Number mean: 0.000689563 max: 0.694429
deltaT = 31.149
Time = 732.59

diagonal:  Solving for Sb, Initial residual = 0, Final residual = 0, No Iterations 0
Saturation b:  Min(Sb) = 0.002 Max(Sb) = 0.846557
DICPCG:  Solving for p, Initial residual = 0.000950984, Final residual = 8.45465e-13, No Iterations 98
ExecutionTime = 0.703125 s  ClockTime = 1 s

Coats CFL Number mean: 0.000743805 max: 0.709932
deltaT = 32.8262
Time = 765.416

diagonal:  Solving for Sb, Initial residual = 0, Final residual = 0, No Iterations 0
Saturation b:  Min(Sb) = 0.002 Max(Sb) = 0.846808
DICPCG:  Solving for p, Initial residual = 0.00102603, Final residual = 9.93252e-13, No Iterations 97
ExecutionTime = 0.71875 s  ClockTime = 1 s

Coats CFL Number mean: 0.000782501 max: 0.846408
deltaT = 29.004
Time = 794.42

diagonal:  Solving for Sb, Initial residual = 0, Final residual = 0, No Iterations 0
Saturation b:  Min(Sb) = 0.002 Max(Sb) = 0.84696
DICPCG:  Solving for p, Initial residual = 0.000957451, Final residual = 7.43827e-13, No Iterations 96
ExecutionTime = 0.71875 s  ClockTime = 1 s

Coats CFL Number mean: 0.000689039 max: 0.741866
deltaT = 29.2054
Time = 823.626

diagonal:  Solving for Sb, Initial residual = 0, Final residual = 0, No Iterations 0
Saturation b:  Min(Sb) = 0.002 Max(Sb) = 0.847587
DICPCG:  Solving for p, Initial residual = 0.00101058, Final residual = 9.52053e-13, No Iterations 94
ExecutionTime = 0.734375 s  ClockTime = 1 s

Coats CFL Number mean: 0.00070495 max: 0.699568
deltaT = 31.167
Time = 854.793

diagonal:  Solving for Sb, Initial residual = 0, Final residual = 0, No Iterations 0
Saturation b:  Min(Sb) = 0.002 Max(Sb) = 0.848479
DICPCG:  Solving for p, Initial residual = 0.00103825, Final residual = 8.39282e-13, No Iterations 96
ExecutionTime = 0.734375 s  ClockTime = 1 s

Coats CFL Number mean: 0.000805084 max: 0.713653
deltaT = 32.6394
Time = 887.432

diagonal:  Solving for Sb, Initial residual = 0, Final residual = 0, No Iterations 0
Saturation b:  Min(Sb) = 0.002 Max(Sb) = 0.849352
DICPCG:  Solving for p, Initial residual = 0.000926661, Final residual = 7.66776e-13, No Iterations 97
ExecutionTime = 0.75 s  ClockTime = 1 s

Coats CFL Number mean: 0.000939918 max: 0.736755
deltaT = 33.1659
Time = 920.598

diagonal:  Solving for Sb, Initial residual = 0, Final residual = 0, No Iterations 0
Saturation b:  Min(Sb) = 0.002 Max(Sb) = 0.850181
DICPCG:  Solving for p, Initial residual = 0.000889645, Final residual = 6.47728e-13, No Iterations 96
ExecutionTime = 0.75 s  ClockTime = 1 s

Coats CFL Number mean: 0.0010425 max: 0.791267
deltaT = 31.38
Time = 951.978

diagonal:  Solving for Sb, Initial residual = 0, Final residual = 0, No Iterations 0
Saturation b:  Min(Sb) = 0.002 Max(Sb) = 0.850917
DICPCG:  Solving for p, Initial residual = 0.000794016, Final residual = 9.07448e-13, No Iterations 96
ExecutionTime = 0.765625 s  ClockTime = 1 s

Coats CFL Number mean: 0.00100591 max: 0.776701
deltaT = 30.2091
Time = 982.187

diagonal:  Solving for Sb, Initial residual = 0, Final residual = 0, No Iterations 0
Saturation b:  Min(Sb) = 0.002 Max(Sb) = 0.851588
DICPCG:  Solving for p, Initial residual = 0.000817803, Final residual = 7.76842e-13, No Iterations 96
ExecutionTime = 0.765625 s  ClockTime = 1 s

Coats CFL Number mean: 0.000948631 max: 0.766563
deltaT = 29.5427
Time = 1011.73

diagonal:  Solving for Sb, Initial residual = 0, Final residual = 0, No Iterations 0
Saturation b:  Min(Sb) = 0.002 Max(Sb) = 0.852209
DICPCG:  Solving for p, Initial residual = 0.000906783, Final residual = 6.32084e-13, No Iterations 96
ExecutionTime = 0.78125 s  ClockTime = 1 s

Coats CFL Number mean: 0.000905102 max: 0.718561
deltaT = 30.679
Time = 1042.41

diagonal:  Solving for Sb, Initial residual = 0, Final residual = 0, No Iterations 0
Saturation b:  Min(Sb) = 0.002 Max(Sb) = 0.85282
DICPCG:  Solving for p, Initial residual = 0.00102931, Final residual = 9.69168e-13, No Iterations 95
ExecutionTime = 0.78125 s  ClockTime = 1 s

Coats CFL Number mean: 0.000932078 max: 0.693546
deltaT = 32.9799
Time = 1075.39

diagonal:  Solving for Sb, Initial residual = 0, Final residual = 0, No Iterations 0
Saturation b:  Min(Sb) = 0.002 Max(Sb) = 0.853441
DICPCG:  Solving for p, Initial residual = 0.00112627, Final residual = 5.70705e-13, No Iterations 96
ExecutionTime = 0.796875 s  ClockTime = 1 s

Coats CFL Number mean: 0.00102407 max: 0.68274
deltaT = 36.0056
Time = 1111.39

diagonal:  Solving for Sb, Initial residual = 0, Final residual = 0, No Iterations 0
Saturation b:  Min(Sb) = 0.002 Max(Sb) = 0.854077
DICPCG:  Solving for p, Initial residual = 0.00113252, Final residual = 8.01033e-13, No Iterations 95
ExecutionTime = 0.796875 s  ClockTime = 1 s

Coats CFL Number mean: 0.00119668 max: 0.713176
deltaT = 37.7535
Time = 1149.15

diagonal:  Solving for Sb, Initial residual = 0, Final residual = 0, No Iterations 0
Saturation b:  Min(Sb) = 0.002 Max(Sb) = 0.8547
DICPCG:  Solving for p, Initial residual = 0.000957851, Final residual = 7.9838e-13, No Iterations 97
ExecutionTime = 0.8125 s  ClockTime = 1 s

Coats CFL Number mean: 0.00137206 max: 0.930336
deltaT = 30.3217
Time = 1179.47

diagonal:  Solving for Sb, Initial residual = 0, Final residual = 0, No Iterations 0
Saturation b:  Min(Sb) = 0.002 Max(Sb) = 0.855175
DICPCG:  Solving for p, Initial residual = 0.000802369, Final residual = 7.39192e-13, No Iterations 95
ExecutionTime = 0.8125 s  ClockTime = 1 s

Coats CFL Number mean: 0.00115157 max: 0.764508
deltaT = 29.6165
Time = 1209.09

diagonal:  Solving for Sb, Initial residual = 0, Final residual = 0, No Iterations 0
Saturation b:  Min(Sb) = 0.002 Max(Sb) = 0.855623
DICPCG:  Solving for p, Initial residual = 0.000815397, Final residual = 7.79565e-13, No Iterations 97
ExecutionTime = 0.8125 s  ClockTime = 1 s

Coats CFL Number mean: 0.00113564 max: 0.709692
deltaT = 31.0731
Time = 1240.16

diagonal:  Solving for Sb, Initial residual = 0, Final residual = 0, No Iterations 0
Saturation b:  Min(Sb) = 0.002 Max(Sb) = 0.85607
DICPCG:  Solving for p, Initial residual = 0.000910996, Final residual = 9.52852e-13, No Iterations 97
ExecutionTime = 0.828125 s  ClockTime = 1 s

Coats CFL Number mean: 0.00118082 max: 0.700157
deltaT = 33.2729
Time = 1273.43

diagonal:  Solving for Sb, Initial residual = 0, Final residual = 0, No Iterations 0
Saturation b:  Min(Sb) = 0.002 Max(Sb) = 0.856524
DICPCG:  Solving for p, Initial residual = 0.00103336, Final residual = 7.10904e-13, No Iterations 98
ExecutionTime = 0.828125 s  ClockTime = 1 s

Coats CFL Number mean: 0.00125811 max: 0.685703
deltaT = 36.1803
Time = 1309.61

diagonal:  Solving for Sb, Initial residual = 0, Final residual = 0, No Iterations 0
Saturation b:  Min(Sb) = 0.002 Max(Sb) = 0.856989
DICPCG:  Solving for p, Initial residual = 0.00111768, Final residual = 8.3304e-13, No Iterations 96
ExecutionTime = 0.84375 s  ClockTime = 1 s

Coats CFL Number mean: 0.0013859 max: 0.690227
deltaT = 39.2594
Time = 1348.87

diagonal:  Solving for Sb, Initial residual = 0, Final residual = 0, No Iterations 0
Saturation b:  Min(Sb) = 0.002 Max(Sb) = 0.857462
DICPCG:  Solving for p, Initial residual = 0.00112326, Final residual = 6.9983e-13, No Iterations 98
ExecutionTime = 0.84375 s  ClockTime = 1 s

Coats CFL Number mean: 0.00154417 max: 0.94372
deltaT = 30.9418
Time = 1379.81

diagonal:  Solving for Sb, Initial residual = 0, Final residual = 0, No Iterations 0
Saturation b:  Min(Sb) = 0.002 Max(Sb) = 0.857817
DICPCG:  Solving for p, Initial residual = 0.000818982, Final residual = 6.95836e-13, No Iterations 97
ExecutionTime = 0.859375 s  ClockTime = 1 s

Coats CFL Number mean: 0.00125344 max: 0.779183
deltaT = 29.6737
Time = 1409.49

diagonal:  Solving for Sb, Initial residual = 0, Final residual = 0, No Iterations 0
Saturation b:  Min(Sb) = 0.002 Max(Sb) = 0.858149
DICPCG:  Solving for p, Initial residual = 0.000882192, Final residual = 9.85603e-13, No Iterations 96
ExecutionTime = 0.859375 s  ClockTime = 1 s

Coats CFL Number mean: 0.0012433 max: 0.717302
deltaT = 30.9527
Time = 1440.44

diagonal:  Solving for Sb, Initial residual = 0, Final residual = 0, No Iterations 0
Saturation b:  Min(Sb) = 0.002 Max(Sb) = 0.858482
DICPCG:  Solving for p, Initial residual = 0.000948493, Final residual = 9.62119e-13, No Iterations 96
ExecutionTime = 0.875 s  ClockTime = 1 s

Coats CFL Number mean: 0.00134968 max: 0.688866
deltaT = 33.5808
Time = 1474.02

diagonal:  Solving for Sb, Initial residual = 0, Final residual = 0, No Iterations 0
Saturation b:  Min(Sb) = 0.002 Max(Sb) = 0.858824
DICPCG:  Solving for p, Initial residual = 0.00101966, Final residual = 5.64037e-13, No Iterations 98
ExecutionTime = 0.875 s  ClockTime = 1 s

Coats CFL Number mean: 0.0015168 max: 0.759093
deltaT = 32.9531
Time = 1506.97

diagonal:  Solving for Sb, Initial residual = 0, Final residual = 0, No Iterations 0
Saturation b:  Min(Sb) = 0.002 Max(Sb) = 0.859143
DICPCG:  Solving for p, Initial residual = 0.000924431, Final residual = 7.65666e-13, No Iterations 98
ExecutionTime = 0.890625 s  ClockTime = 1 s

Coats CFL Number mean: 0.00151289 max: 0.742331
deltaT = 33.2669
Time = 1540.24

diagonal:  Solving for Sb, Initial residual = 0, Final residual = 0, No Iterations 0
Saturation b:  Min(Sb) = 0.002 Max(Sb) = 0.859451
DICPCG:  Solving for p, Initial residual = 0.000900144, Final residual = 7.83241e-13, No Iterations 98
ExecutionTime = 0.890625 s  ClockTime = 1 s

Coats CFL Number mean: 0.00153438 max: 0.744217
deltaT = 33.2669
Time = 1573.51

diagonal:  Solving for Sb, Initial residual = 0, Final residual = 0, No Iterations 0
Saturation b:  Min(Sb) = 0.002 Max(Sb) = 0.859745
DICPCG:  Solving for p, Initial residual = 0.000873824, Final residual = 7.13094e-13, No Iterations 98
ExecutionTime = 0.90625 s  ClockTime = 1 s

Coats CFL Number mean: 0.00152839 max: 0.817005
deltaT = 30.3229
Time = 1603.83

diagonal:  Solving for Sb, Initial residual = 0, Final residual = 0, No Iterations 0
Saturation b:  Min(Sb) = 0.002 Max(Sb) = 0.860003
DICPCG:  Solving for p, Initial residual = 0.000843112, Final residual = 9.2589e-13, No Iterations 97
ExecutionTime = 0.90625 s  ClockTime = 1 s

Coats CFL Number mean: 0.00138669 max: 0.73809
deltaT = 30.5961
Time = 1634.43

diagonal:  Solving for Sb, Initial residual = 0, Final residual = 0, No Iterations 0
Saturation b:  Min(Sb) = 0.002 Max(Sb) = 0.860255
DICPCG:  Solving for p, Initial residual = 0.00090505, Final residual = 7.76145e-13, No Iterations 97
ExecutionTime = 0.921875 s  ClockTime = 1 s

Coats CFL Number mean: 0.00141264 max: 0.707945
deltaT = 32.3613
Time = 1666.79

diagonal:  Solving for Sb, Initial residual = 0, Final residual = 0, No Iterations 0
Saturation b:  Min(Sb) = 0.002 Max(Sb) = 0.86051
DICPCG:  Solving for p, Initial residual = 0.000997826, Final residual = 7.52568e-13, No Iterations 98
ExecutionTime = 0.921875 s  ClockTime = 1 s

Coats CFL Number mean: 0.00154408 max: 0.700926
deltaT = 34.363
Time = 1701.15

diagonal:  Solving for Sb, Initial residual = 0, Final residual = 0, No Iterations 0
Saturation b:  Min(Sb) = 0.002 Max(Sb) = 0.860766
DICPCG:  Solving for p, Initial residual = 0.00107676, Final residual = 8.45668e-13, No Iterations 98
ExecutionTime = 0.9375 s  ClockTime = 1 s

Coats CFL Number mean: 0.00172539 max: 0.671158
deltaT = 37.9178
Time = 1739.07

diagonal:  Solving for Sb, Initial residual = 0, Final residual = 0, No Iterations 0
Saturation b:  Min(Sb) = 0.002 Max(Sb) = 0.861031
DICPCG:  Solving for p, Initial residual = 0.0010397, Final residual = 8.07497e-13, No Iterations 97
ExecutionTime = 0.9375 s  ClockTime = 1 s

Coats CFL Number mean: 0.00200294 max: 0.821885
deltaT = 34.3256
Time = 1773.39

diagonal:  Solving for Sb, Initial residual = 0, Final residual = 0, No Iterations 0
Saturation b:  Min(Sb) = 0.002 Max(Sb) = 0.86126
DICPCG:  Solving for p, Initial residual = 0.000817933, Final residual = 5.61907e-13, No Iterations 99
ExecutionTime = 0.953125 s  ClockTime = 1 s

Coats CFL Number mean: 0.00183809 max: 0.832842
deltaT = 30.7296
Time = 1804.12

diagonal:  Solving for Sb, Initial residual = 0, Final residual = 0, No Iterations 0
Saturation b:  Min(Sb) = 0.002 Max(Sb) = 0.86146
DICPCG:  Solving for p, Initial residual = 0.000764201, Final residual = 8.70818e-13, No Iterations 98
ExecutionTime = 0.953125 s  ClockTime = 1 s

Coats CFL Number mean: 0.00163051 max: 0.740697
deltaT = 31.0279
Time = 1835.15

diagonal:  Solving for Sb, Initial residual = 0, Final residual = 0, No Iterations 0
Saturation b:  Min(Sb) = 0.002 Max(Sb) = 0.861657
DICPCG:  Solving for p, Initial residual = 0.000868607, Final residual = 8.5447e-13, No Iterations 98
ExecutionTime = 0.96875 s  ClockTime = 1 s

Coats CFL Number mean: 0.00162861 max: 0.709378
deltaT = 32.6273
Time = 1867.78

diagonal:  Solving for Sb, Initial residual = 0, Final residual = 0, No Iterations 0
Saturation b:  Min(Sb) = 0.002 Max(Sb) = 0.861855
DICPCG:  Solving for p, Initial residual = 0.000956572, Final residual = 9.01277e-13, No Iterations 98
ExecutionTime = 0.96875 s  ClockTime = 1 s

Coats CFL Number mean: 0.00171162 max: 0.696424
deltaT = 34.8025
Time = 1902.58

diagonal:  Solving for Sb, Initial residual = 0, Final residual = 0, No Iterations 0
Saturation b:  Min(Sb) = 0.002 Max(Sb) = 0.862054
DICPCG:  Solving for p, Initial residual = 0.00103817, Final residual = 9.99295e-13, No Iterations 95
ExecutionTime = 0.984375 s  ClockTime = 1 s

Coats CFL Number mean: 0.00186506 max: 0.694665
deltaT = 37.3183
Time = 1939.9

diagonal:  Solving for Sb, Initial residual = 0, Final residual = 0, No Iterations 0
Saturation b:  Min(Sb) = 0.002 Max(Sb) = 0.862253
DICPCG:  Solving for p, Initial residual = 0.00108073, Final residual = 8.86227e-13, No Iterations 98
ExecutionTime = 0.984375 s  ClockTime = 1 s

Coats CFL Number mean: 0.00207812 max: 0.779605
deltaT = 35.5826
Time = 1975.48

diagonal:  Solving for Sb, Initial residual = 0, Final residual = 0, No Iterations 0
Saturation b:  Min(Sb) = 0.002 Max(Sb) = 0.862434
DICPCG:  Solving for p, Initial residual = 0.000958884, Final residual = 8.91294e-13, No Iterations 98
ExecutionTime = 1 s  ClockTime = 1 s

Coats CFL Number mean: 0.00206049 max: 0.855094
deltaT = 31.1806
Time = 2006.66

diagonal:  Solving for Sb, Initial residual = 0, Final residual = 0, No Iterations 0
Saturation b:  Min(Sb) = 0.002 Max(Sb) = 0.86259
DICPCG:  Solving for p, Initial residual = 0.000798281, Final residual = 9.98096e-13, No Iterations 97
ExecutionTime = 1 s  ClockTime = 1 s

Coats CFL Number mean: 0.00184879 max: 0.752072
deltaT = 30.8591
Time = 2037.52

diagonal:  Solving for Sb, Initial residual = 0, Final residual = 0, No Iterations 0
Saturation b:  Min(Sb) = 0.002 Max(Sb) = 0.862741
DICPCG:  Solving for p, Initial residual = 0.000801452, Final residual = 9.10886e-13, No Iterations 98
ExecutionTime = 1.01562 s  ClockTime = 1 s

Coats CFL Number mean: 0.00184998 max: 0.706553
deltaT = 32.5547
Time = 2070.08

diagonal:  Solving for Sb, Initial residual = 0, Final residual = 0, No Iterations 0
Saturation b:  Min(Sb) = 0.002 Max(Sb) = 0.862893
DICPCG:  Solving for p, Initial residual = 0.000866954, Final residual = 6.48372e-13, No Iterations 99
ExecutionTime = 1.01562 s  ClockTime = 1 s

Coats CFL Number mean: 0.001954 max: 0.712045
deltaT = 34.0689
Time = 2104.15

diagonal:  Solving for Sb, Initial residual = 0, Final residual = 0, No Iterations 0
Saturation b:  Min(Sb) = 0.002 Max(Sb) = 0.863043
DICPCG:  Solving for p, Initial residual = 0.00094981, Final residual = 6.84323e-13, No Iterations 99
ExecutionTime = 1.03125 s  ClockTime = 1 s

Coats CFL Number mean: 0.00204869 max: 0.686897
deltaT = 37.1263
Time = 2141.27

diagonal:  Solving for Sb, Initial residual = 0, Final residual = 0, No Iterations 0
Saturation b:  Min(Sb) = 0.002 Max(Sb) = 0.863196
DICPCG:  Solving for p, Initial residual = 0.00100397, Final residual = 6.74868e-13, No Iterations 99
ExecutionTime = 1.03125 s  ClockTime = 1 s

Coats CFL Number mean: 0.00225347 max: 0.744119
deltaT = 37.1263
Time = 2178.4

diagonal:  Solving for Sb, Initial residual = 0, Final residual = 0, No Iterations 0
Saturation b:  Min(Sb) = 0.002 Max(Sb) = 0.863339
DICPCG:  Solving for p, Initial residual = 0.000951505, Final residual = 7.39163e-13, No Iterations 96
ExecutionTime = 1.04688 s  ClockTime = 1 s

Coats CFL Number mean: 0.00228707 max: 0.879768
deltaT = 31.3511
Time = 2209.75

diagonal:  Solving for Sb, Initial residual = 0, Final residual = 0, No Iterations 0
Saturation b:  Min(Sb) = 0.002 Max(Sb) = 0.863457
DICPCG:  Solving for p, Initial residual = 0.000835904, Final residual = 6.31206e-13, No Iterations 98
ExecutionTime = 1.04688 s  ClockTime = 1 s

Coats CFL Number mean: 0.00195594 max: 0.756033
deltaT = 31.0028
Time = 2240.75

diagonal:  Solving for Sb, Initial residual = 0, Final residual = 0, No Iterations 0
Saturation b:  Min(Sb) = 0.002 Max(Sb) = 0.863574
DICPCG:  Solving for p, Initial residual = 0.00088242, Final residual = 7.03747e-13, No Iterations 98
ExecutionTime = 1.0625 s  ClockTime = 1 s

Coats CFL Number mean: 0.00197106 max: 0.716473
deltaT = 32.0843
Time = 2272.84

diagonal:  Solving for Sb, Initial residual = 0, Final residual = 0, No Iterations 0
Saturation b:  Min(Sb) = 0.002 Max(Sb) = 0.86369
DICPCG:  Solving for p, Initial residual = 0.000938155, Final residual = 6.80031e-13, No Iterations 98
ExecutionTime = 1.0625 s  ClockTime = 1 s

Coats CFL Number mean: 0.0020947 max: 0.691682
deltaT = 34.5211
Time = 2307.36

diagonal:  Solving for Sb, Initial residual = 0, Final residual = 0, No Iterations 0
Saturation b:  Min(Sb) = 0.002 Max(Sb) = 0.863806
DICPCG:  Solving for p, Initial residual = 0.000951729, Final residual = 8.64028e-13, No Iterations 97
ExecutionTime = 1.07812 s  ClockTime = 1 s

Coats CFL Number mean: 0.0023176 max: 0.727658
deltaT = 35.4295
Time = 2342.79

diagonal:  Solving for Sb, Initial residual = 0, Final residual = 0, No Iterations 0
Saturation b:  Min(Sb) = 0.002 Max(Sb) = 0.863917
DICPCG:  Solving for p, Initial residual = 0.000892677, Final residual = 9.82354e-13, No Iterations 98
ExecutionTime = 1.07812 s  ClockTime = 1 s

Coats CFL Number mean: 0.00241577 max: 0.775956
deltaT = 34.0668
Time = 2376.85

diagonal:  Solving for Sb, Initial residual = 0, Final residual = 0, No Iterations 0
Saturation b:  Min(Sb) = 0.002 Max(Sb) = 0.864019
DICPCG:  Solving for p, Initial residual = 0.000826898, Final residual = 8.81928e-13, No Iterations 98
ExecutionTime = 1.09375 s  ClockTime = 1 s

Coats CFL Number mean: 0.0023306 max: 0.78265
deltaT = 32.3845
Time = 2409.24

diagonal:  Solving for Sb, Initial residual = 0, Final residual = 0, No Iterations 0
Saturation b:  Min(Sb) = 0.002 Max(Sb) = 0.864113
DICPCG:  Solving for p, Initial residual = 0.000781647, Final residual = 6.99936e-13, No Iterations 98
ExecutionTime = 1.09375 s  ClockTime = 1 s

Coats CFL Number mean: 0.002209 max: 0.778919
deltaT = 30.8424
Time = 2440.08

diagonal:  Solving for Sb, Initial residual = 0, Final residual = 0, No Iterations 0
Saturation b:  Min(Sb) = 0.002 Max(Sb) = 0.864202
DICPCG:  Solving for p, Initial residual = 0.000811891, Final residual = 5.84109e-13, No Iterations 98
ExecutionTime = 1.10938 s  ClockTime = 1 s

Coats CFL Number mean: 0.0021007 max: 0.720781
deltaT = 31.999
Time = 2472.08

diagonal:  Solving for Sb, Initial residual = 0, Final residual = 0, No Iterations 0
Saturation b:  Min(Sb) = 0.002 Max(Sb) = 0.86429
DICPCG:  Solving for p, Initial residual = 0.000909517, Final residual = 9.34038e-13, No Iterations 95
ExecutionTime = 1.10938 s  ClockTime = 1 s

Coats CFL Number mean: 0.00219612 max: 0.703532
deltaT = 33.7056
Time = 2505.79

diagonal:  Solving for Sb, Initial residual = 0, Final residual = 0, No Iterations 0
Saturation b:  Min(Sb) = 0.002 Max(Sb) = 0.864376
DICPCG:  Solving for p, Initial residual = 0.000994295, Final residual = 6.20656e-13, No Iterations 98
ExecutionTime = 1.125 s  ClockTime = 1 s

Coats CFL Number mean: 0.00236388 max: 0.689196
deltaT = 36.6796
Time = 2542.47

diagonal:  Solving for Sb, Initial residual = 0, Final residual = 0, No Iterations 0
Saturation b:  Min(Sb) = 0.002 Max(Sb) = 0.864461
DICPCG:  Solving for p, Initial residual = 0.00103568, Final residual = 8.23848e-13, No Iterations 98
ExecutionTime = 1.125 s  ClockTime = 1 s

Coats CFL Number mean: 0.0026662 max: 0.69479
deltaT = 39.0085
Time = 2581.47

diagonal:  Solving for Sb, Initial residual = 0, Final residual = 0, No Iterations 0
Saturation b:  Min(Sb) = 0.002 Max(Sb) = 0.864542
DICPCG:  Solving for p, Initial residual = 0.000951474, Final residual = 8.8485e-13, No Iterations 97
ExecutionTime = 1.14062 s  ClockTime = 1 s

Coats CFL Number mean: 0.00292866 max: 0.885862
deltaT = 32.6828
Time = 2614.16

diagonal:  Solving for Sb, Initial residual = 0, Final residual = 0, No Iterations 0
Saturation b:  Min(Sb) = 0.002 Max(Sb) = 0.864609
DICPCG:  Solving for p, Initial residual = 0.000725558, Final residual = 7.27136e-13, No Iterations 99
ExecutionTime = 1.14062 s  ClockTime = 1 s

Coats CFL Number mean: 0.00247395 max: 0.784337
deltaT = 30.985
Time = 2645.14

diagonal:  Solving for Sb, Initial residual = 0, Final residual = 0, No Iterations 0
Saturation b:  Min(Sb) = 0.002 Max(Sb) = 0.864675
DICPCG:  Solving for p, Initial residual = 0.00074753, Final residual = 9.87627e-13, No Iterations 98
ExecutionTime = 1.15625 s  ClockTime = 1 s

Coats CFL Number mean: 0.00233633 max: 0.724732
deltaT = 31.8224
Time = 2676.96

diagonal:  Solving for Sb, Initial residual = 0, Final residual = 0, No Iterations 0
Saturation b:  Min(Sb) = 0.002 Max(Sb) = 0.86474
DICPCG:  Solving for p, Initial residual = 0.000846811, Final residual = 9.9577e-13, No Iterations 98
ExecutionTime = 1.15625 s  ClockTime = 1 s

Coats CFL Number mean: 0.00238851 max: 0.700811
deltaT = 33.6672
Time = 2710.63

diagonal:  Solving for Sb, Initial residual = 0, Final residual = 0, No Iterations 0
Saturation b:  Min(Sb) = 0.002 Max(Sb) = 0.864803
DICPCG:  Solving for p, Initial residual = 0.000938702, Final residual = 6.40142e-13, No Iterations 99
ExecutionTime = 1.15625 s  ClockTime = 1 s

Coats CFL Number mean: 0.00253475 max: 0.68961
deltaT = 36.3392
Time = 2746.97

diagonal:  Solving for Sb, Initial residual = 0, Final residual = 0, No Iterations 0
Saturation b:  Min(Sb) = 0.002 Max(Sb) = 0.864864
DICPCG:  Solving for p, Initial residual = 0.00100558, Final residual = 9.84e-13, No Iterations 98
ExecutionTime = 1.17188 s  ClockTime = 1 s

Coats CFL Number mean: 0.00277748 max: 0.691719
deltaT = 38.8453
Time = 2785.82

diagonal:  Solving for Sb, Initial residual = 0, Final residual = 0, No Iterations 0
Saturation b:  Min(Sb) = 0.002 Max(Sb) = 0.86492
DICPCG:  Solving for p, Initial residual = 0.00101112, Final residual = 6.61446e-13, No Iterations 99
ExecutionTime = 1.17188 s  ClockTime = 1 s

Coats CFL Number mean: 0.00304217 max: 0.864887
deltaT = 33.5482
Time = 2819.36

diagonal:  Solving for Sb, Initial residual = 0, Final residual = 0, No Iterations 0
Saturation b:  Min(Sb) = 0.002 Max(Sb) = 0.864967
DICPCG:  Solving for p, Initial residual = 0.000838676, Final residual = 5.98906e-13, No Iterations 99
ExecutionTime = 1.1875 s  ClockTime = 1 s

Coats CFL Number mean: 0.00268356 max: 0.802205
deltaT = 31.1519
Time = 2850.52

diagonal:  Solving for Sb, Initial residual = 0, Final residual = 0, No Iterations 0
Saturation b:  Min(Sb) = 0.002 Max(Sb) = 0.865014
DICPCG:  Solving for p, Initial residual = 0.000781373, Final residual = 8.84606e-13, No Iterations 98
ExecutionTime = 1.1875 s  ClockTime = 1 s

Coats CFL Number mean: 0.00253273 max: 0.731198
deltaT = 31.6101
Time = 2882.13

diagonal:  Solving for Sb, Initial residual = 0, Final residual = 0, No Iterations 0
Saturation b:  Min(Sb) = 0.002 Max(Sb) = 0.86506
DICPCG:  Solving for p, Initial residual = 0.000801696, Final residual = 7.83496e-13, No Iterations 98
ExecutionTime = 1.20312 s  ClockTime = 1 s

Coats CFL Number mean: 0.00260098 max: 0.70139
deltaT = 33.6171
Time = 2915.74

diagonal:  Solving for Sb, Initial residual = 0, Final residual = 0, No Iterations 0
Saturation b:  Min(Sb) = 0.002 Max(Sb) = 0.865104
DICPCG:  Solving for p, Initial residual = 0.000856763, Final residual = 9.71623e-13, No Iterations 99
ExecutionTime = 1.20312 s  ClockTime = 1 s

Coats CFL Number mean: 0.00278377 max: 0.725186
deltaT = 34.7376
Time = 2950.48

diagonal:  Solving for Sb, Initial residual = 0, Final residual = 0, No Iterations 0
Saturation b:  Min(Sb) = 0.002 Max(Sb) = 0.865144
DICPCG:  Solving for p, Initial residual = 0.000912919, Final residual = 6.95081e-13, No Iterations 100
ExecutionTime = 1.21875 s  ClockTime = 1 s

Coats CFL Number mean: 0.0028893 max: 0.702091
deltaT = 36.5986
Time = 2987.08

diagonal:  Solving for Sb, Initial residual = 0, Final residual = 0, No Iterations 0
Saturation b:  Min(Sb) = 0.002 Max(Sb) = 0.865181
DICPCG:  Solving for p, Initial residual = 0.000916682, Final residual = 9.65576e-13, No Iterations 99
ExecutionTime = 1.21875 s  ClockTime = 1 s

Coats CFL Number mean: 0.00306287 max: 0.781727
deltaT = 34.7055
Time = 3021.78

diagonal:  Solving for Sb, Initial residual = 0, Final residual = 0, No Iterations 0
Saturation b:  Min(Sb) = 0.002 Max(Sb) = 0.865213
DICPCG:  Solving for p, Initial residual = 0.000834467, Final residual = 6.15905e-13, No Iterations 99
ExecutionTime = 1.23438 s  ClockTime = 1 s

Coats CFL Number mean: 0.0029215 max: 0.823245
deltaT = 31.4002
Time = 3053.18

diagonal:  Solving for Sb, Initial residual = 0, Final residual = 0, No Iterations 0
Saturation b:  Min(Sb) = 0.002 Max(Sb) = 0.865243
DICPCG:  Solving for p, Initial residual = 0.000805682, Final residual = 9.16192e-13, No Iterations 98
ExecutionTime = 1.23438 s  ClockTime = 1 s

Coats CFL Number mean: 0.00266074 max: 0.741571
deltaT = 31.4002
Time = 3084.59

diagonal:  Solving for Sb, Initial residual = 0, Final residual = 0, No Iterations 0
Saturation b:  Min(Sb) = 0.002 Max(Sb) = 0.865273
DICPCG:  Solving for p, Initial residual = 0.000865237, Final residual = 6.31258e-13, No Iterations 99
ExecutionTime = 1.25 s  ClockTime = 1 s

Coats CFL Number mean: 0.00269447 max: 0.705897
deltaT = 33.0244
Time = 3117.61

diagonal:  Solving for Sb, Initial residual = 0, Final residual = 0, No Iterations 0
Saturation b:  Min(Sb) = 0.002 Max(Sb) = 0.865302
DICPCG:  Solving for p, Initial residual = 0.000933495, Final residual = 7.12746e-13, No Iterations 99
ExecutionTime = 1.25 s  ClockTime = 1 s

Coats CFL Number mean: 0.0028926 max: 0.69391
deltaT = 35.5168
Time = 3153.13

diagonal:  Solving for Sb, Initial residual = 0, Final residual = 0, No Iterations 0
Saturation b:  Min(Sb) = 0.002 Max(Sb) = 0.865326
DICPCG:  Solving for p, Initial residual = 0.000937649, Final residual = 9.60395e-13, No Iterations 99
ExecutionTime = 1.26562 s  ClockTime = 1 s

Coats CFL Number mean: 0.0031895 max: 0.701314
deltaT = 37.6913
Time = 3190.82

diagonal:  Solving for Sb, Initial residual = 0, Final residual = 0, No Iterations 0
Saturation b:  Min(Sb) = 0.002 Max(Sb) = 0.865346
DICPCG:  Solving for p, Initial residual = 0.000879245, Final residual = 7.52277e-13, No Iterations 98
ExecutionTime = 1.26562 s  ClockTime = 1 s

Coats CFL Number mean: 0.00343969 max: 0.81175
deltaT = 34.792
Time = 3225.61

diagonal:  Solving for Sb, Initial residual = 0, Final residual = 0, No Iterations 0
Saturation b:  Min(Sb) = 0.002 Max(Sb) = 0.865362
DICPCG:  Solving for p, Initial residual = 0.000787631, Final residual = 7.2304e-13, No Iterations 100
ExecutionTime = 1.28125 s  ClockTime = 1 s

Coats CFL Number mean: 0.00317933 max: 0.817411
deltaT = 31.6855
Time = 3257.3

diagonal:  Solving for Sb, Initial residual = 0, Final residual = 0, No Iterations 0
Saturation b:  Min(Sb) = 0.002 Max(Sb) = 0.865379
DICPCG:  Solving for p, Initial residual = 0.000755619, Final residual = 7.98493e-13, No Iterations 99
ExecutionTime = 1.28125 s  ClockTime = 1 s

Coats CFL Number mean: 0.00288398 max: 0.750903
deltaT = 31.1197
Time = 3288.41

diagonal:  Solving for Sb, Initial residual = 0, Final residual = 0, No Iterations 0
Saturation b:  Min(Sb) = 0.002 Max(Sb) = 0.865396
DICPCG:  Solving for p, Initial residual = 0.000809318, Final residual = 9.31504e-13, No Iterations 97
ExecutionTime = 1.29688 s  ClockTime = 1 s

Coats CFL Number mean: 0.00282825 max: 0.706327
deltaT = 32.9151
Time = 3321.33

diagonal:  Solving for Sb, Initial residual = 0, Final residual = 0, No Iterations 0
Saturation b:  Min(Sb) = 0.002 Max(Sb) = 0.865411
DICPCG:  Solving for p, Initial residual = 0.000906109, Final residual = 9.12485e-13, No Iterations 98
ExecutionTime = 1.29688 s  ClockTime = 1 s

Coats CFL Number mean: 0.00300936 max: 0.699483
deltaT = 34.9723
Time = 3356.3

diagonal:  Solving for Sb, Initial residual = 0, Final residual = 0, No Iterations 0
Saturation b:  Min(Sb) = 0.002 Max(Sb) = 0.865422
DICPCG:  Solving for p, Initial residual = 0.000981644, Final residual = 7.24307e-13, No Iterations 99
ExecutionTime = 1.3125 s  ClockTime = 1 s

Coats CFL Number mean: 0.00325172 max: 0.691817
deltaT = 37.3568
Time = 3393.66

diagonal:  Solving for Sb, Initial residual = 0, Final residual = 0, No Iterations 0
Saturation b:  Min(Sb) = 0.002 Max(Sb) = 0.865428
DICPCG:  Solving for p, Initial residual = 0.000986908, Final residual = 8.83345e-13, No Iterations 99
ExecutionTime = 1.3125 s  ClockTime = 1 s

Coats CFL Number mean: 0.00356562 max: 0.737614
deltaT = 37.3568
Time = 3431.02

diagonal:  Solving for Sb, Initial residual = 0, Final residual = 0, No Iterations 0
Saturation b:  Min(Sb) = 0.002 Max(Sb) = 0.865429
DICPCG:  Solving for p, Initial residual = 0.000862626, Final residual = 7.2204e-13, No Iterations 99
ExecutionTime = 1.32812 s  ClockTime = 1 s

Coats CFL Number mean: 0.00365071 max: 0.869373
deltaT = 32.0201
Time = 3463.04

diagonal:  Solving for Sb, Initial residual = 0, Final residual = 0, No Iterations 0
Saturation b:  Min(Sb) = 0.002 Max(Sb) = 0.865433
DICPCG:  Solving for p, Initial residual = 0.000711561, Final residual = 7.26871e-13, No Iterations 100
ExecutionTime = 1.32812 s  ClockTime = 1 s

Coats CFL Number mean: 0.00315457 max: 0.759482
deltaT = 31.3666
Time = 3494.4

diagonal:  Solving for Sb, Initial residual = 0, Final residual = 0, No Iterations 0
Saturation b:  Min(Sb) = 0.002 Max(Sb) = 0.865439
DICPCG:  Solving for p, Initial residual = 0.000748228, Final residual = 9.50685e-13, No Iterations 99
ExecutionTime = 1.34375 s  ClockTime = 1 s

Coats CFL Number mean: 0.00308814 max: 0.715801
deltaT = 32.7304
Time = 3527.13

diagonal:  Solving for Sb, Initial residual = 0, Final residual = 0, No Iterations 0
Saturation b:  Min(Sb) = 0.002 Max(Sb) = 0.865442
DICPCG:  Solving for p, Initial residual = 0.000884905, Final residual = 8.14643e-13, No Iterations 99
ExecutionTime = 1.34375 s  ClockTime = 1 s

Coats CFL Number mean: 0.00321766 max: 0.701035
deltaT = 34.2527
Time = 3561.39

diagonal:  Solving for Sb, Initial residual = 0, Final residual = 0, No Iterations 0
Saturation b:  Min(Sb) = 0.002 Max(Sb) = 0.865442
DICPCG:  Solving for p, Initial residual = 0.000921142, Final residual = 7.69378e-13, No Iterations 99
ExecutionTime = 1.35938 s  ClockTime = 1 s

Coats CFL Number mean: 0.0033777 max: 0.683935
deltaT = 36.8875
Time = 3598.27

diagonal:  Solving for Sb, Initial residual = 0, Final residual = 0, No Iterations 0
Saturation b:  Min(Sb) = 0.002 Max(Sb) = 0.865437
DICPCG:  Solving for p, Initial residual = 0.000958642, Final residual = 7.06256e-13, No Iterations 99
ExecutionTime = 1.35938 s  ClockTime = 1 s

Coats CFL Number mean: 0.00367506 max: 0.699446
deltaT = 38.9369
Time = 3637.21

diagonal:  Solving for Sb, Initial residual = 0, Final residual = 0, No Iterations 0
Saturation b:  Min(Sb) = 0.002 Max(Sb) = 0.865425
DICPCG:  Solving for p, Initial residual = 0.000953049, Final residual = 8.04098e-13, No Iterations 99
ExecutionTime = 1.375 s  ClockTime = 1 s

Coats CFL Number mean: 0.00393797 max: 0.897088
deltaT = 32.4474
Time = 3669.66

diagonal:  Solving for Sb, Initial residual = 0, Final residual = 0, No Iterations 0
Saturation b:  Min(Sb) = 0.002 Max(Sb) = 0.865417
DICPCG:  Solving for p, Initial residual = 0.000799367, Final residual = 6.91581e-13, No Iterations 99
ExecutionTime = 1.375 s  ClockTime = 1 s

Coats CFL Number mean: 0.00332332 max: 0.769394
deltaT = 30.9382
Time = 3700.6

diagonal:  Solving for Sb, Initial residual = 0, Final residual = 0, No Iterations 0
Saturation b:  Min(Sb) = 0.002 Max(Sb) = 0.865414
DICPCG:  Solving for p, Initial residual = 0.000778187, Final residual = 6.73886e-13, No Iterations 99
ExecutionTime = 1.39062 s  ClockTime = 1 s

Coats CFL Number mean: 0.00321149 max: 0.709501
deltaT = 32.4851
Time = 3733.08

diagonal:  Solving for Sb, Initial residual = 0, Final residual = 0, No Iterations 0
Saturation b:  Min(Sb) = 0.002 Max(Sb) = 0.865408
DICPCG:  Solving for p, Initial residual = 0.000827889, Final residual = 7.96751e-13, No Iterations 100
ExecutionTime = 1.39062 s  ClockTime = 1 s

Coats CFL Number mean: 0.00341804 max: 0.701242
deltaT = 34.2411
Time = 3767.32

diagonal:  Solving for Sb, Initial residual = 0, Final residual = 0, No Iterations 0
Saturation b:  Min(Sb) = 0.002 Max(Sb) = 0.865399
DICPCG:  Solving for p, Initial residual = 0.000854078, Final residual = 6.77914e-13, No Iterations 98
ExecutionTime = 1.40625 s  ClockTime = 1 s

Coats CFL Number mean: 0.00363715 max: 0.731721
deltaT = 34.2411
Time = 3801.56

diagonal:  Solving for Sb, Initial residual = 0, Final residual = 0, No Iterations 0
Saturation b:  Min(Sb) = 0.002 Max(Sb) = 0.865386
DICPCG:  Solving for p, Initial residual = 0.0010341, Final residual = 9.3359e-13, No Iterations 99
ExecutionTime = 1.40625 s  ClockTime = 1 s

Coats CFL Number mean: 0.00365771 max: 0.705343
deltaT = 36.3163
Time = 3837.88

diagonal:  Solving for Sb, Initial residual = 0, Final residual = 0, No Iterations 0
Saturation b:  Min(Sb) = 0.002 Max(Sb) = 0.865369
DICPCG:  Solving for p, Initial residual = 0.000866373, Final residual = 8.93338e-13, No Iterations 100
ExecutionTime = 1.42188 s  ClockTime = 1 s

Coats CFL Number mean: 0.00389265 max: 0.808188
deltaT = 33.2035
Time = 3871.08

diagonal:  Solving for Sb, Initial residual = 0, Final residual = 0, No Iterations 0
Saturation b:  Min(Sb) = 0.002 Max(Sb) = 0.865354
DICPCG:  Solving for p, Initial residual = 0.000771281, Final residual = 7.97885e-13, No Iterations 97
ExecutionTime = 1.42188 s  ClockTime = 1 s

Coats CFL Number mean: 0.00356288 max: 0.786676
deltaT = 31.3588
Time = 3902.44

diagonal:  Solving for Sb, Initial residual = 0, Final residual = 0, No Iterations 0
Saturation b:  Min(Sb) = 0.002 Max(Sb) = 0.865341
DICPCG:  Solving for p, Initial residual = 0.000798947, Final residual = 9.6177e-13, No Iterations 97
ExecutionTime = 1.4375 s  ClockTime = 1 s

Coats CFL Number mean: 0.00337447 max: 0.728803
deltaT = 31.3588
Time = 3933.8

diagonal:  Solving for Sb, Initial residual = 0, Final residual = 0, No Iterations 0
Saturation b:  Min(Sb) = 0.002 Max(Sb) = 0.865328
DICPCG:  Solving for p, Initial residual = 0.000849801, Final residual = 7.38595e-13, No Iterations 99
ExecutionTime = 1.4375 s  ClockTime = 1 s

Coats CFL Number mean: 0.00340256 max: 0.691158
deltaT = 33.3187
Time = 3967.12

diagonal:  Solving for Sb, Initial residual = 0, Final residual = 0, No Iterations 0
Saturation b:  Min(Sb) = 0.002 Max(Sb) = 0.865312
DICPCG:  Solving for p, Initial residual = 0.000921485, Final residual = 6.61551e-13, No Iterations 99
ExecutionTime = 1.45312 s  ClockTime = 1 s

Coats CFL Number mean: 0.00367385 max: 0.686947
deltaT = 35.6166
Time = 4002.74

diagonal:  Solving for Sb, Initial residual = 0, Final residual = 0, No Iterations 0
Saturation b:  Min(Sb) = 0.002 Max(Sb) = 0.86529
DICPCG:  Solving for p, Initial residual = 0.000915176, Final residual = 9.30865e-13, No Iterations 99
ExecutionTime = 1.45312 s  ClockTime = 1 s

Coats CFL Number mean: 0.00401386 max: 0.685601
deltaT = 38.3563
Time = 4041.09

diagonal:  Solving for Sb, Initial residual = 0, Final residual = 0, No Iterations 0
Saturation b:  Min(Sb) = 0.002 Max(Sb) = 0.86526
DICPCG:  Solving for p, Initial residual = 0.00087035, Final residual = 7.94361e-13, No Iterations 99
ExecutionTime = 1.46875 s  ClockTime = 1 s

Coats CFL Number mean: 0.00439692 max: 0.828022
deltaT = 34.2467
Time = 4075.34

diagonal:  Solving for Sb, Initial residual = 0, Final residual = 0, No Iterations 0
Saturation b:  Min(Sb) = 0.002 Max(Sb) = 0.865234
DICPCG:  Solving for p, Initial residual = 0.000976098, Final residual = 7.7163e-13, No Iterations 97
ExecutionTime = 1.46875 s  ClockTime = 1 s

Coats CFL Number mean: 0.00393716 max: 0.807844
deltaT = 30.822
Time = 4106.16

diagonal:  Solving for Sb, Initial residual = 0, Final residual = 0, No Iterations 0
Saturation b:  Min(Sb) = 0.002 Max(Sb) = 0.865214
DICPCG:  Solving for p, Initial residual = 0.000725461, Final residual = 7.83534e-13, No Iterations 100
ExecutionTime = 1.46875 s  ClockTime = 1 s

Coats CFL Number mean: 0.00353201 max: 0.721531
deltaT = 31.9228
Time = 4138.08

diagonal:  Solving for Sb, Initial residual = 0, Final residual = 0, No Iterations 0
Saturation b:  Min(Sb) = 0.002 Max(Sb) = 0.865194
DICPCG:  Solving for p, Initial residual = 0.000818335, Final residual = 8.18662e-13, No Iterations 96
ExecutionTime = 1.48438 s  ClockTime = 1 s

Coats CFL Number mean: 0.00365054 max: 0.711333
deltaT = 33.1506
Time = 4171.23

diagonal:  Solving for Sb, Initial residual = 0, Final residual = 0, No Iterations 0
Saturation b:  Min(Sb) = 0.002 Max(Sb) = 0.86517
DICPCG:  Solving for p, Initial residual = 0.000925032, Final residual = 8.35068e-13, No Iterations 99
ExecutionTime = 1.48438 s  ClockTime = 1 s

Coats CFL Number mean: 0.00380476 max: 0.691877
deltaT = 34.5319
Time = 4205.77

diagonal:  Solving for Sb, Initial residual = 0, Final residual = 0, No Iterations 0
Saturation b:  Min(Sb) = 0.002 Max(Sb) = 0.865143
DICPCG:  Solving for p, Initial residual = 0.00093826, Final residual = 9.2454e-13, No Iterations 99
ExecutionTime = 1.5 s  ClockTime = 1 s

Coats CFL Number mean: 0.00400818 max: 0.673586
deltaT = 37.8207
Time = 4243.59

diagonal:  Solving for Sb, Initial residual = 0, Final residual = 0, No Iterations 0
Saturation b:  Min(Sb) = 0.002 Max(Sb) = 0.865107
DICPCG:  Solving for p, Initial residual = 0.000960961, Final residual = 9.78413e-13, No Iterations 98
ExecutionTime = 1.5 s  ClockTime = 1 s

Coats CFL Number mean: 0.00447167 max: 0.781
deltaT = 36.0197
Time = 4279.61

diagonal:  Solving for Sb, Initial residual = 0, Final residual = 0, No Iterations 0
Saturation b:  Min(Sb) = 0.002 Max(Sb) = 0.86507
DICPCG:  Solving for p, Initial residual = 0.000835977, Final residual = 6.44953e-13, No Iterations 100
ExecutionTime = 1.51562 s  ClockTime = 1 s

Coats CFL Number mean: 0.00433457 max: 0.842557
deltaT = 31.3215
Time = 4310.93

diagonal:  Solving for Sb, Initial residual = 0, Final residual = 0, No Iterations 0
Saturation b:  Min(Sb) = 0.002 Max(Sb) = 0.865042
DICPCG:  Solving for p, Initial residual = 0.000711917, Final residual = 7.70991e-13, No Iterations 99
ExecutionTime = 1.51562 s  ClockTime = 1 s

Coats CFL Number mean: 0.00380819 max: 0.736285
deltaT = 31.3215
Time = 4342.25

diagonal:  Solving for Sb, Initial residual = 0, Final residual = 0, No Iterations 0
Saturation b:  Min(Sb) = 0.002 Max(Sb) = 0.865017
DICPCG:  Solving for p, Initial residual = 0.000732792, Final residual = 8.65322e-13, No Iterations 98
ExecutionTime = 1.53125 s  ClockTime = 1 s

Coats CFL Number mean: 0.00382416 max: 0.70554
deltaT = 32.8875
Time = 4375.14

diagonal:  Solving for Sb, Initial residual = 0, Final residual = 0, No Iterations 0
Saturation b:  Min(Sb) = 0.002 Max(Sb) = 0.864988
DICPCG:  Solving for p, Initial residual = 0.000818118, Final residual = 9.58596e-13, No Iterations 97
ExecutionTime = 1.53125 s  ClockTime = 1 s

Coats CFL Number mean: 0.00401963 max: 0.695607
deltaT = 34.7146
Time = 4409.85

diagonal:  Solving for Sb, Initial residual = 0, Final residual = 0, No Iterations 0
Saturation b:  Min(Sb) = 0.002 Max(Sb) = 0.864953
DICPCG:  Solving for p, Initial residual = 0.000897079, Final residual = 8.17613e-13, No Iterations 100
ExecutionTime = 1.54688 s  ClockTime = 1 s

Coats CFL Number mean: 0.00425473 max: 0.686069
deltaT = 36.8843
Time = 4446.74

diagonal:  Solving for Sb, Initial residual = 0, Final residual = 0, No Iterations 0
Saturation b:  Min(Sb) = 0.002 Max(Sb) = 0.864912
DICPCG:  Solving for p, Initial residual = 0.000917516, Final residual = 9.35725e-13, No Iterations 100
ExecutionTime = 1.54688 s  ClockTime = 1 s

Coats CFL Number mean: 0.00454807 max: 0.724396
deltaT = 36.8843
Time = 4483.62

diagonal:  Solving for Sb, Initial residual = 0, Final residual = 0, No Iterations 0
Saturation b:  Min(Sb) = 0.002 Max(Sb) = 0.864869
DICPCG:  Solving for p, Initial residual = 0.000874487, Final residual = 7.28401e-13, No Iterations 100
ExecutionTime = 1.5625 s  ClockTime = 1 s

Coats CFL Number mean: 0.00458301 max: 0.850918
deltaT = 32.2738
Time = 4515.89

diagonal:  Solving for Sb, Initial residual = 0, Final residual = 0, No Iterations 0
Saturation b:  Min(Sb) = 0.002 Max(Sb) = 0.864833
DICPCG:  Solving for p, Initial residual = 0.000789687, Final residual = 5.42853e-13, No Iterations 100
ExecutionTime = 1.5625 s  ClockTime = 1 s

Coats CFL Number mean: 0.00403868 max: 0.760724
deltaT = 30.2566
Time = 4546.15

diagonal:  Solving for Sb, Initial residual = 0, Final residual = 0, No Iterations 0
Saturation b:  Min(Sb) = 0.002 Max(Sb) = 0.864803
DICPCG:  Solving for p, Initial residual = 0.000784464, Final residual = 8.97312e-13, No Iterations 97
ExecutionTime = 1.57812 s  ClockTime = 1 s

Coats CFL Number mean: 0.00382193 max: 0.689367
deltaT = 32.4178
Time = 4578.57

diagonal:  Solving for Sb, Initial residual = 0, Final residual = 0, No Iterations 0
Saturation b:  Min(Sb) = 0.002 Max(Sb) = 0.86477
[...]
ExecutionTime = 4.8125 s  ClockTime = 5 s

Coats CFL Number mean: 0.00684461 max: 0.742918
deltaT = 39.5843
Time = 22585.4

diagonal:  Solving for Sb, Initial residual = 0, Final residual = 0, No Iterations 0
Saturation b:  Min(Sb) = 0.002 Max(Sb) = 0.990398
DICPCG:  Solving for p, Initial residual = 0.000215384, Final residual = 8.50138e-13, No Iterations 100
ExecutionTime = 4.82812 s  ClockTime = 5 s

Coats CFL Number mean: 0.00678656 max: 0.740251
deltaT = 39.5843
Time = 22624.9

diagonal:  Solving for Sb, Initial residual = 0, Final residual = 0, No Iterations 0
Saturation b:  Min(Sb) = 0.002 Max(Sb) = 0.99041
DICPCG:  Solving for p, Initial residual = 0.000218675, Final residual = 7.77718e-13, No Iterations 100
ExecutionTime = 4.82812 s  ClockTime = 5 s

Coats CFL Number mean: 0.00675568 max: 0.737216
deltaT = 40.2552
Time = 22665.2

diagonal:  Solving for Sb, Initial residual = 0, Final residual = 0, No Iterations 0
Saturation b:  Min(Sb) = 0.002 Max(Sb) = 0.990421
DICPCG:  Solving for p, Initial residual = 0.000225706, Final residual = 9.74024e-13, No Iterations 99
ExecutionTime = 4.84375 s  ClockTime = 5 s

Coats CFL Number mean: 0.00685837 max: 0.746224
deltaT = 40.2552
Time = 22705.5

diagonal:  Solving for Sb, Initial residual = 0, Final residual = 0, No Iterations 0
Saturation b:  Min(Sb) = 0.002 Max(Sb) = 0.990432
DICPCG:  Solving for p, Initial residual = 0.000229377, Final residual = 8.75988e-13, No Iterations 99
ExecutionTime = 4.84375 s  ClockTime = 5 s

Coats CFL Number mean: 0.00686085 max: 0.742419
deltaT = 40.2552
Time = 22745.7

diagonal:  Solving for Sb, Initial residual = 0, Final residual = 0, No Iterations 0
Saturation b:  Min(Sb) = 0.002 Max(Sb) = 0.990444
DICPCG:  Solving for p, Initial residual = 0.000232812, Final residual = 8.11542e-13, No Iterations 99
ExecutionTime = 4.85938 s  ClockTime = 5 s

Coats CFL Number mean: 0.00687201 max: 0.73833
deltaT = 40.2552
Time = 22786

diagonal:  Solving for Sb, Initial residual = 0, Final residual = 0, No Iterations 0
Saturation b:  Min(Sb) = 0.002 Max(Sb) = 0.990455
DICPCG:  Solving for p, Initial residual = 0.000235307, Final residual = 9.9009e-13, No Iterations 98
ExecutionTime = 4.85938 s  ClockTime = 5 s

Coats CFL Number mean: 0.00688461 max: 0.73399
deltaT = 41.0006
Time = 22827

diagonal:  Solving for Sb, Initial residual = 0, Final residual = 0, No Iterations 0
Saturation b:  Min(Sb) = 0.002 Max(Sb) = 0.990466
DICPCG:  Solving for p, Initial residual = 0.0002395, Final residual = 9.86033e-13, No Iterations 96
ExecutionTime = 4.85938 s  ClockTime = 5 s

Coats CFL Number mean: 0.00701514 max: 0.742848
deltaT = 41.0006
Time = 22868

diagonal:  Solving for Sb, Initial residual = 0, Final residual = 0, No Iterations 0
Saturation b:  Min(Sb) = 0.002 Max(Sb) = 0.990478
DICPCG:  Solving for p, Initial residual = 0.000235171, Final residual = 7.77281e-13, No Iterations 99
ExecutionTime = 4.875 s  ClockTime = 5 s

Coats CFL Number mean: 0.00699252 max: 0.737909
deltaT = 41.0006
Time = 22909

diagonal:  Solving for Sb, Initial residual = 0, Final residual = 0, No Iterations 0
Saturation b:  Min(Sb) = 0.002 Max(Sb) = 0.990489
DICPCG:  Solving for p, Initial residual = 0.000224148, Final residual = 7.49376e-13, No Iterations 99
ExecutionTime = 4.875 s  ClockTime = 5 s

Coats CFL Number mean: 0.00693426 max: 0.732794
deltaT = 41.8207
Time = 22950.8

diagonal:  Solving for Sb, Initial residual = 0, Final residual = 0, No Iterations 0
Saturation b:  Min(Sb) = 0.002 Max(Sb) = 0.990501
DICPCG:  Solving for p, Initial residual = 0.000210382, Final residual = 9.47912e-13, No Iterations 98
ExecutionTime = 4.89062 s  ClockTime = 5 s

Coats CFL Number mean: 0.00698651 max: 0.741969
deltaT = 41.8207
Time = 22992.6

diagonal:  Solving for Sb, Initial residual = 0, Final residual = 0, No Iterations 0
Saturation b:  Min(Sb) = 0.002 Max(Sb) = 0.990512
DICPCG:  Solving for p, Initial residual = 0.000189961, Final residual = 9.83944e-13, No Iterations 96
ExecutionTime = 4.89062 s  ClockTime = 5 s

Coats CFL Number mean: 0.00690225 max: 0.736355
deltaT = 41.8207
Time = 23034.4

diagonal:  Solving for Sb, Initial residual = 0, Final residual = 0, No Iterations 0
Saturation b:  Min(Sb) = 0.002 Max(Sb) = 0.990524
DICPCG:  Solving for p, Initial residual = 0.000180492, Final residual = 8.4304e-13, No Iterations 95
ExecutionTime = 4.90625 s  ClockTime = 5 s

Coats CFL Number mean: 0.00683577 max: 0.730631
deltaT = 42.7298
Time = 23077.2

diagonal:  Solving for Sb, Initial residual = 0, Final residual = 0, No Iterations 0
Saturation b:  Min(Sb) = 0.002 Max(Sb) = 0.990535
DICPCG:  Solving for p, Initial residual = 0.000188948, Final residual = 8.39717e-13, No Iterations 95
ExecutionTime = 4.90625 s  ClockTime = 5 s

Coats CFL Number mean: 0.00692801 max: 0.740443
deltaT = 42.7298
Time = 23119.9

diagonal:  Solving for Sb, Initial residual = 0, Final residual = 0, No Iterations 0
Saturation b:  Min(Sb) = 0.002 Max(Sb) = 0.990547
DICPCG:  Solving for p, Initial residual = 0.000193651, Final residual = 8.21756e-13, No Iterations 95
ExecutionTime = 4.92188 s  ClockTime = 5 s

Coats CFL Number mean: 0.00686826 max: 0.734297
deltaT = 42.7298
Time = 23162.6

diagonal:  Solving for Sb, Initial residual = 0, Final residual = 0, No Iterations 0
Saturation b:  Min(Sb) = 0.002 Max(Sb) = 0.990559
DICPCG:  Solving for p, Initial residual = 0.000196265, Final residual = 9.90758e-13, No Iterations 95
ExecutionTime = 4.92188 s  ClockTime = 5 s

Coats CFL Number mean: 0.00678486 max: 0.728093
deltaT = 43.7472
Time = 23206.4

diagonal:  Solving for Sb, Initial residual = 0, Final residual = 0, No Iterations 0
Saturation b:  Min(Sb) = 0.002 Max(Sb) = 0.99057
DICPCG:  Solving for p, Initial residual = 0.00019839, Final residual = 9.95038e-13, No Iterations 97
ExecutionTime = 4.9375 s  ClockTime = 5 s

Coats CFL Number mean: 0.00681499 max: 0.738884
deltaT = 43.7472
Time = 23250.1

diagonal:  Solving for Sb, Initial residual = 0, Final residual = 0, No Iterations 0
Saturation b:  Min(Sb) = 0.002 Max(Sb) = 0.990582
DICPCG:  Solving for p, Initial residual = 0.000188547, Final residual = 8.64079e-13, No Iterations 95
ExecutionTime = 4.9375 s  ClockTime = 5 s

Coats CFL Number mean: 0.00664004 max: 0.732313
deltaT = 43.7472
Time = 23293.9

diagonal:  Solving for Sb, Initial residual = 0, Final residual = 0, No Iterations 0
Saturation b:  Min(Sb) = 0.002 Max(Sb) = 0.990594
DICPCG:  Solving for p, Initial residual = 0.000170529, Final residual = 7.02265e-13, No Iterations 96
ExecutionTime = 4.95312 s  ClockTime = 5 s

Coats CFL Number mean: 0.00645744 max: 0.725731
deltaT = 44.8984
Time = 23338.8

diagonal:  Solving for Sb, Initial residual = 0, Final residual = 0, No Iterations 0
Saturation b:  Min(Sb) = 0.002 Max(Sb) = 0.990606
DICPCG:  Solving for p, Initial residual = 0.000152517, Final residual = 8.55613e-13, No Iterations 98
ExecutionTime = 4.95312 s  ClockTime = 5 s

Coats CFL Number mean: 0.00647486 max: 0.737899
deltaT = 44.8984
Time = 23383.7

diagonal:  Solving for Sb, Initial residual = 0, Final residual = 0, No Iterations 0
Saturation b:  Min(Sb) = 0.002 Max(Sb) = 0.990618
DICPCG:  Solving for p, Initial residual = 0.000139167, Final residual = 8.93834e-13, No Iterations 98
ExecutionTime = 4.96875 s  ClockTime = 5 s

Coats CFL Number mean: 0.00637828 max: 0.730983
deltaT = 44.8984
Time = 23428.6

diagonal:  Solving for Sb, Initial residual = 0, Final residual = 0, No Iterations 0
Saturation b:  Min(Sb) = 0.002 Max(Sb) = 0.990629
DICPCG:  Solving for p, Initial residual = 0.000141526, Final residual = 8.5176e-13, No Iterations 98
ExecutionTime = 4.96875 s  ClockTime = 5 s

Coats CFL Number mean: 0.0063244 max: 0.724094
deltaT = 46.219
Time = 23474.8

diagonal:  Solving for Sb, Initial residual = 0, Final residual = 0, No Iterations 0
Saturation b:  Min(Sb) = 0.002 Max(Sb) = 0.990642
DICPCG:  Solving for p, Initial residual = 0.000291945, Final residual = 6.52199e-13, No Iterations 98
ExecutionTime = 4.98438 s  ClockTime = 5 s

Coats CFL Number mean: 0.00648268 max: 0.748928
deltaT = 46.219
Time = 23521

diagonal:  Solving for Sb, Initial residual = 0, Final residual = 0, No Iterations 0
Saturation b:  Min(Sb) = 0.002 Max(Sb) = 0.990654
DICPCG:  Solving for p, Initial residual = 0.00035625, Final residual = 7.59552e-13, No Iterations 98
ExecutionTime = 4.98438 s  ClockTime = 5 s

Coats CFL Number mean: 0.00646651 max: 0.757866
deltaT = 44.8184
Time = 23565.8

diagonal:  Solving for Sb, Initial residual = 0, Final residual = 0, No Iterations 0
Saturation b:  Min(Sb) = 0.002 Max(Sb) = 0.990665
DICPCG:  Solving for p, Initial residual = 0.000167473, Final residual = 8.52216e-13, No Iterations 98
ExecutionTime = 5 s  ClockTime = 5 s

Coats CFL Number mean: 0.00626001 max: 0.740737
deltaT = 44.8184
Time = 23610.6

diagonal:  Solving for Sb, Initial residual = 0, Final residual = 0, No Iterations 0
Saturation b:  Min(Sb) = 0.002 Max(Sb) = 0.990677
DICPCG:  Solving for p, Initial residual = 0.000174827, Final residual = 7.67355e-13, No Iterations 98
ExecutionTime = 5 s  ClockTime = 5 s

Coats CFL Number mean: 0.0062574 max: 0.744459
deltaT = 44.8184
Time = 23655.4

diagonal:  Solving for Sb, Initial residual = 0, Final residual = 0, No Iterations 0
Saturation b:  Min(Sb) = 0.002 Max(Sb) = 0.990689
DICPCG:  Solving for p, Initial residual = 0.000177523, Final residual = 7.3396e-13, No Iterations 98
ExecutionTime = 5.01562 s  ClockTime = 5 s

Coats CFL Number mean: 0.00625969 max: 0.746411
deltaT = 44.8184
Time = 23700.3

diagonal:  Solving for Sb, Initial residual = 0, Final residual = 0, No Iterations 0
Saturation b:  Min(Sb) = 0.002 Max(Sb) = 0.9907
DICPCG:  Solving for p, Initial residual = 0.000185471, Final residual = 7.63649e-13, No Iterations 98
ExecutionTime = 5.01562 s  ClockTime = 5 s

Coats CFL Number mean: 0.00626513 max: 0.746878
deltaT = 44.8184
Time = 23745.1

diagonal:  Solving for Sb, Initial residual = 0, Final residual = 0, No Iterations 0
Saturation b:  Min(Sb) = 0.002 Max(Sb) = 0.990712
DICPCG:  Solving for p, Initial residual = 0.000192864, Final residual = 6.33616e-13, No Iterations 98
ExecutionTime = 5.03125 s  ClockTime = 5 s

Coats CFL Number mean: 0.00626853 max: 0.746097
deltaT = 44.8184
Time = 23789.9

diagonal:  Solving for Sb, Initial residual = 0, Final residual = 0, No Iterations 0
Saturation b:  Min(Sb) = 0.002 Max(Sb) = 0.990723
DICPCG:  Solving for p, Initial residual = 0.000194074, Final residual = 6.73337e-13, No Iterations 98
ExecutionTime = 5.03125 s  ClockTime = 5 s

Coats CFL Number mean: 0.00625951 max: 0.744274
deltaT = 44.8184
Time = 23834.7

diagonal:  Solving for Sb, Initial residual = 0, Final residual = 0, No Iterations 0
Saturation b:  Min(Sb) = 0.002 Max(Sb) = 0.990734
DICPCG:  Solving for p, Initial residual = 0.00019174, Final residual = 6.63939e-13, No Iterations 98
ExecutionTime = 5.04688 s  ClockTime = 5 s

Coats CFL Number mean: 0.00622578 max: 0.741586
deltaT = 44.8184
Time = 23879.5

diagonal:  Solving for Sb, Initial residual = 0, Final residual = 0, No Iterations 0
Saturation b:  Min(Sb) = 0.002 Max(Sb) = 0.990746
DICPCG:  Solving for p, Initial residual = 0.000182759, Final residual = 6.13701e-13, No Iterations 98
ExecutionTime = 5.04688 s  ClockTime = 5 s

Coats CFL Number mean: 0.00616721 max: 0.738186
deltaT = 44.8184
Time = 23924.4

diagonal:  Solving for Sb, Initial residual = 0, Final residual = 0, No Iterations 0
Saturation b:  Min(Sb) = 0.002 Max(Sb) = 0.990757
DICPCG:  Solving for p, Initial residual = 0.000181881, Final residual = 9.89953e-13, No Iterations 97
ExecutionTime = 5.0625 s  ClockTime = 5 s

Coats CFL Number mean: 0.00610486 max: 0.734183
deltaT = 44.8184
Time = 23969.2

diagonal:  Solving for Sb, Initial residual = 0, Final residual = 0, No Iterations 0
Saturation b:  Min(Sb) = 0.002 Max(Sb) = 0.990768
DICPCG:  Solving for p, Initial residual = 0.000154237, Final residual = 9.23794e-13, No Iterations 97
ExecutionTime = 5.0625 s  ClockTime = 5 s

Coats CFL Number mean: 0.0060612 max: 0.729724
deltaT = 44.8184
Time = 24014

diagonal:  Solving for Sb, Initial residual = 0, Final residual = 0, No Iterations 0
Saturation b:  Min(Sb) = 0.002 Max(Sb) = 0.990779
DICPCG:  Solving for p, Initial residual = 0.000154035, Final residual = 8.65353e-13, No Iterations 97
ExecutionTime = 5.0625 s  ClockTime = 5 s

Coats CFL Number mean: 0.00604056 max: 0.724882
deltaT = 44.8184
Time = 24058.8

diagonal:  Solving for Sb, Initial residual = 0, Final residual = 0, No Iterations 0
Saturation b:  Min(Sb) = 0.002 Max(Sb) = 0.990791
DICPCG:  Solving for p, Initial residual = 0.000159818, Final residual = 8.23019e-13, No Iterations 97
ExecutionTime = 5.07812 s  ClockTime = 5 s

Coats CFL Number mean: 0.00602865 max: 0.719719
deltaT = 44.8184
Time = 24103.6

diagonal:  Solving for Sb, Initial residual = 0, Final residual = 0, No Iterations 0
Saturation b:  Min(Sb) = 0.002 Max(Sb) = 0.990802
DICPCG:  Solving for p, Initial residual = 0.000210069, Final residual = 6.76723e-13, No Iterations 97
ExecutionTime = 5.07812 s  ClockTime = 5 s

Coats CFL Number mean: 0.00600096 max: 0.714254
deltaT = 44.8184
Time = 24148.5

diagonal:  Solving for Sb, Initial residual = 0, Final residual = 0, No Iterations 0
Saturation b:  Min(Sb) = 0.002 Max(Sb) = 0.990813
DICPCG:  Solving for p, Initial residual = 0.000164847, Final residual = 6.39059e-13, No Iterations 97
ExecutionTime = 5.09375 s  ClockTime = 5 s

Coats CFL Number mean: 0.00592684 max: 0.708625
deltaT = 47.3083
Time = 24195.8

diagonal:  Solving for Sb, Initial residual = 0, Final residual = 0, No Iterations 0
Saturation b:  Min(Sb) = 0.002 Max(Sb) = 0.990824
DICPCG:  Solving for p, Initial residual = 0.000167907, Final residual = 6.70873e-13, No Iterations 97
ExecutionTime = 5.09375 s  ClockTime = 5 s

Coats CFL Number mean: 0.00611602 max: 0.741542
deltaT = 47.3083
Time = 24243.1

diagonal:  Solving for Sb, Initial residual = 0, Final residual = 0, No Iterations 0
Saturation b:  Min(Sb) = 0.002 Max(Sb) = 0.990836
DICPCG:  Solving for p, Initial residual = 0.000154869, Final residual = 6.64305e-13, No Iterations 97
ExecutionTime = 5.10938 s  ClockTime = 5 s

Coats CFL Number mean: 0.00594444 max: 0.734954
deltaT = 47.3083
Time = 24290.4

diagonal:  Solving for Sb, Initial residual = 0, Final residual = 0, No Iterations 0
Saturation b:  Min(Sb) = 0.002 Max(Sb) = 0.990847
DICPCG:  Solving for p, Initial residual = 0.000136601, Final residual = 6.44679e-13, No Iterations 97
ExecutionTime = 5.10938 s  ClockTime = 5 s

Coats CFL Number mean: 0.00578988 max: 0.728268
deltaT = 47.3083
Time = 24337.7

diagonal:  Solving for Sb, Initial residual = 0, Final residual = 0, No Iterations 0
Saturation b:  Min(Sb) = 0.002 Max(Sb) = 0.990859
DICPCG:  Solving for p, Initial residual = 0.000119009, Final residual = 9.80078e-13, No Iterations 96
ExecutionTime = 5.10938 s  ClockTime = 5 s

Coats CFL Number mean: 0.00567966 max: 0.721512
deltaT = 47.3083
Time = 24385

diagonal:  Solving for Sb, Initial residual = 0, Final residual = 0, No Iterations 0
Saturation b:  Min(Sb) = 0.002 Max(Sb) = 0.99087
DICPCG:  Solving for p, Initial residual = 0.000119703, Final residual = 9.22601e-13, No Iterations 96
ExecutionTime = 5.125 s  ClockTime = 5 s

Coats CFL Number mean: 0.00560824 max: 0.714706
deltaT = 47.3083
Time = 24432.3

diagonal:  Solving for Sb, Initial residual = 0, Final residual = 0, No Iterations 0
Saturation b:  Min(Sb) = 0.002 Max(Sb) = 0.990882
DICPCG:  Solving for p, Initial residual = 0.000124645, Final residual = 8.6994e-13, No Iterations 96
ExecutionTime = 5.125 s  ClockTime = 5 s

Coats CFL Number mean: 0.00555991 max: 0.70787
deltaT = 47.3083
Time = 24479.6

diagonal:  Solving for Sb, Initial residual = 0, Final residual = 0, No Iterations 0
Saturation b:  Min(Sb) = 0.002 Max(Sb) = 0.990893
DICPCG:  Solving for p, Initial residual = 0.000130388, Final residual = 8.2088e-13, No Iterations 96
ExecutionTime = 5.14062 s  ClockTime = 5 s

Coats CFL Number mean: 0.00552389 max: 0.701019
deltaT = 47.3083
Time = 24526.9

diagonal:  Solving for Sb, Initial residual = 0, Final residual = 0, No Iterations 0
Saturation b:  Min(Sb) = 0.002 Max(Sb) = 0.990904
DICPCG:  Solving for p, Initial residual = 0.000136706, Final residual = 7.73749e-13, No Iterations 96
ExecutionTime = 5.14062 s  ClockTime = 5 s

Coats CFL Number mean: 0.00549617 max: 0.694168
deltaT = 47.3083
Time = 24574.2

diagonal:  Solving for Sb, Initial residual = 0, Final residual = 0, No Iterations 0
Saturation b:  Min(Sb) = 0.002 Max(Sb) = 0.990916
DICPCG:  Solving for p, Initial residual = 0.000150388, Final residual = 7.47526e-13, No Iterations 96
ExecutionTime = 5.15625 s  ClockTime = 5 s

Coats CFL Number mean: 0.00547732 max: 0.687318
deltaT = 47.3083
Time = 24621.5

diagonal:  Solving for Sb, Initial residual = 0, Final residual = 0, No Iterations 0
Saturation b:  Min(Sb) = 0.002 Max(Sb) = 0.990927
DICPCG:  Solving for p, Initial residual = 0.000150513, Final residual = 9.24951e-13, No Iterations 95
ExecutionTime = 5.15625 s  ClockTime = 5 s

Coats CFL Number mean: 0.00546734 max: 0.680523
deltaT = 47.3083
Time = 24668.8

diagonal:  Solving for Sb, Initial residual = 0, Final residual = 0, No Iterations 0
Saturation b:  Min(Sb) = 0.002 Max(Sb) = 0.990938
DICPCG:  Solving for p, Initial residual = 0.000157733, Final residual = 7.68889e-13, No Iterations 92
ExecutionTime = 5.15625 s  ClockTime = 5 s

Coats CFL Number mean: 0.00546832 max: 0.673783
deltaT = 47.3083
Time = 24716.2

diagonal:  Solving for Sb, Initial residual = 0, Final residual = 0, No Iterations 0
Saturation b:  Min(Sb) = 0.002 Max(Sb) = 0.990949
DICPCG:  Solving for p, Initial residual = 0.000164831, Final residual = 8.40027e-13, No Iterations 94
ExecutionTime = 5.17188 s  ClockTime = 5 s

Coats CFL Number mean: 0.00548139 max: 0.667104
deltaT = 47.3083
Time = 24763.5

diagonal:  Solving for Sb, Initial residual = 0, Final residual = 0, No Iterations 0
Saturation b:  Min(Sb) = 0.002 Max(Sb) = 0.99096
DICPCG:  Solving for p, Initial residual = 0.000171225, Final residual = 8.0234e-13, No Iterations 94
ExecutionTime = 5.17188 s  ClockTime = 5 s

Coats CFL Number mean: 0.00550507 max: 0.660492
deltaT = 47.3083
Time = 24810.8

diagonal:  Solving for Sb, Initial residual = 0, Final residual = 0, No Iterations 0
Saturation b:  Min(Sb) = 0.002 Max(Sb) = 0.990971
DICPCG:  Solving for p, Initial residual = 0.000187816, Final residual = 7.70218e-13, No Iterations 94
ExecutionTime = 5.1875 s  ClockTime = 5 s

Coats CFL Number mean: 0.00553297 max: 0.66305
deltaT = 47.3083
Time = 24858.1

diagonal:  Solving for Sb, Initial residual = 0, Final residual = 0, No Iterations 0
Saturation b:  Min(Sb) = 0.002 Max(Sb) = 0.990982
DICPCG:  Solving for p, Initial residual = 0.000177336, Final residual = 9.34222e-13, No Iterations 95
ExecutionTime = 5.1875 s  ClockTime = 5 s

Coats CFL Number mean: 0.00554665 max: 0.665665
deltaT = 47.3083
Time = 24905.4

diagonal:  Solving for Sb, Initial residual = 0, Final residual = 0, No Iterations 0
Saturation b:  Min(Sb) = 0.002 Max(Sb) = 0.990993
DICPCG:  Solving for p, Initial residual = 0.000173894, Final residual = 6.59929e-13, No Iterations 96
ExecutionTime = 5.20312 s  ClockTime = 5 s

Coats CFL Number mean: 0.00553282 max: 0.665702
deltaT = 47.3083
Time = 24952.7

diagonal:  Solving for Sb, Initial residual = 0, Final residual = 0, No Iterations 0
Saturation b:  Min(Sb) = 0.002 Max(Sb) = 0.991004
DICPCG:  Solving for p, Initial residual = 0.000165047, Final residual = 9.71507e-13, No Iterations 95
ExecutionTime = 5.20312 s  ClockTime = 5 s

Coats CFL Number mean: 0.0054926 max: 0.663642
deltaT = 47.3083
Time = 25000

diagonal:  Solving for Sb, Initial residual = 0, Final residual = 0, No Iterations 0
Saturation b:  Min(Sb) = 0.002 Max(Sb) = 0.991015
DICPCG:  Solving for p, Initial residual = 0.000152579, Final residual = 8.9659e-13, No Iterations 93
ExecutionTime = 5.23438 s  ClockTime = 5 s

End

