/*---------------------------------------------------------------------------*\
  =========                 |
  \\      /  F ield         | OpenFOAM: The Open Source CFD Toolbox
   \\    /   O peration     | Website:  https://openfoam.org
    \\  /    A nd           | Version:  10
     \\/     M anipulation  |
\*---------------------------------------------------------------------------*/
Build  : 10-c4cf895ad8fa
Exec   : impesFoam
Date   : Feb 27 2024
Time   : 09:52:05
Host   : "HWLAP0350-EPS"
PID    : 10216
I/O    : uncollated
Case   : /home/ap2095/OpenFOAM/ap2095-10/run/injection
nProcs : 1
sigFpe : Enabling floating point exception trapping (FOAM_SIGFPE).
fileModificationChecking : Monitoring run-time modified files using timeStampMaster (fileModificationSkew 10)
allowSystemOperations : Allowing user-supplied system call operations

// * * * * * * * * * * * * * * * * * * * * * * * * * * * * * * * * * * * * * //

**********************************
Current version of PMF is 2310.0.0
**********************************

Create time

Create mesh for time = 0


Reading g
Reading pressure field p

Reading saturation field Sb

Reading transportProperties

Computing field phia from field Ua

Computing field phib from field Ub

Selecting porousMedium model => simplePorosity

Selecting capillarity model for field Sb => BrooksAndCorey

Brooks and Corey parameters for capillarity pressure model
{
    Sbmin 0.001
    Sbmax 0.999
    pc0 5
    alpha 0.2
    hd 0
} 

Selecting relativePermeability model for field Sb => BrooksAndCorey

Brooks and Corey parameters for relative permeability model
{
    Sbmin 0.001
    Sbmax 0.999
    n read file
    kramax 1
    krbmax 1
} 


Reading field U
Reading/calculating face flux field phi


Reading Event file 'injection.evt' ...OK!
{
  number of dates       = 2
  number of coordinates = 2
  number datas          = 4
}

Starting time loop

Coats CFL Number mean: 0 max: 0
deltaT = 1.2e-05
Time = 1.2e-05

diagonal:  Solving for Sb, Initial residual = 0, Final residual = 0, No Iterations 0
Saturation b:  Min(Sb) = 0.002 Max(Sb) = 0.00200006
DICPCG:  Solving for p, Initial residual = 1, Final residual = 8.73366e-13, No Iterations 112
ExecutionTime = 0.109375 s  ClockTime = 1 s

Coats CFL Number mean: 2.84367e-13 max: 5.71734e-13
deltaT = 1.44e-05
Time = 2.64e-05

diagonal:  Solving for Sb, Initial residual = 0, Final residual = 0, No Iterations 0
Saturation b:  Min(Sb) = 0.002 Max(Sb) = 0.00200012
DICPCG:  Solving for p, Initial residual = 1.39234e-09, Final residual = 8.64293e-13, No Iterations 53
ExecutionTime = 0.125 s  ClockTime = 1 s

Coats CFL Number mean: 3.4124e-13 max: 6.86081e-13
deltaT = 1.728e-05
Time = 4.368e-05

diagonal:  Solving for Sb, Initial residual = 0, Final residual = 0, No Iterations 0
Saturation b:  Min(Sb) = 0.002 Max(Sb) = 0.0020002
DICPCG:  Solving for p, Initial residual = 1.15525e-09, Final residual = 8.21632e-13, No Iterations 45
ExecutionTime = 0.125 s  ClockTime = 1 s

Coats CFL Number mean: 4.09488e-13 max: 8.23297e-13
deltaT = 2.0736e-05
Time = 6.4416e-05

diagonal:  Solving for Sb, Initial residual = 0, Final residual = 0, No Iterations 0
Saturation b:  Min(Sb) = 0.002 Max(Sb) = 0.0020003
DICPCG:  Solving for p, Initial residual = 1.38609e-09, Final residual = 9.34509e-13, No Iterations 45
ExecutionTime = 0.125 s  ClockTime = 1 s

Coats CFL Number mean: 4.91386e-13 max: 9.87956e-13
deltaT = 2.48832e-05
Time = 8.92992e-05

diagonal:  Solving for Sb, Initial residual = 0, Final residual = 0, No Iterations 0
Saturation b:  Min(Sb) = 0.002 Max(Sb) = 0.00200041
DICPCG:  Solving for p, Initial residual = 1.66326e-09, Final residual = 9.52957e-13, No Iterations 48
ExecutionTime = 0.140625 s  ClockTime = 1 s

Coats CFL Number mean: 5.89663e-13 max: 1.18555e-12
deltaT = 2.98598e-05
Time = 0.000119159

diagonal:  Solving for Sb, Initial residual = 0, Final residual = 0, No Iterations 0
Saturation b:  Min(Sb) = 0.002 Max(Sb) = 0.00200055
DICPCG:  Solving for p, Initial residual = 1.99574e-09, Final residual = 8.97528e-13, No Iterations 52
ExecutionTime = 0.140625 s  ClockTime = 1 s

Coats CFL Number mean: 7.07596e-13 max: 1.42266e-12
deltaT = 3.58318e-05
Time = 0.000154991

diagonal:  Solving for Sb, Initial residual = 0, Final residual = 0, No Iterations 0
Saturation b:  Min(Sb) = 0.002 Max(Sb) = 0.00200072
DICPCG:  Solving for p, Initial residual = 2.39464e-09, Final residual = 9.11463e-13, No Iterations 53
ExecutionTime = 0.15625 s  ClockTime = 1 s

Coats CFL Number mean: 8.49116e-13 max: 1.70719e-12
deltaT = 4.29982e-05
Time = 0.000197989

diagonal:  Solving for Sb, Initial residual = 0, Final residual = 0, No Iterations 0
Saturation b:  Min(Sb) = 0.002 Max(Sb) = 0.00200091
DICPCG:  Solving for p, Initial residual = 2.87341e-09, Final residual = 7.81049e-13, No Iterations 54
ExecutionTime = 0.15625 s  ClockTime = 1 s

Coats CFL Number mean: 1.01894e-12 max: 2.04921e-12
deltaT = 5.15978e-05
Time = 0.000249587

diagonal:  Solving for Sb, Initial residual = 0, Final residual = 0, No Iterations 0
Saturation b:  Min(Sb) = 0.002 Max(Sb) = 0.00200115
DICPCG:  Solving for p, Initial residual = 3.44778e-09, Final residual = 9.3914e-13, No Iterations 54
ExecutionTime = 0.171875 s  ClockTime = 1 s

Coats CFL Number mean: 1.22273e-12 max: 2.46022e-12
deltaT = 6.19173e-05
Time = 0.000311504

diagonal:  Solving for Sb, Initial residual = 0, Final residual = 0, No Iterations 0
Saturation b:  Min(Sb) = 0.002 Max(Sb) = 0.00200144
DICPCG:  Solving for p, Initial residual = 4.13733e-09, Final residual = 7.75628e-13, No Iterations 55
ExecutionTime = 0.171875 s  ClockTime = 1 s

Coats CFL Number mean: 1.46727e-12 max: 2.95395e-12
deltaT = 7.43008e-05
Time = 0.000385805

diagonal:  Solving for Sb, Initial residual = 0, Final residual = 0, No Iterations 0
Saturation b:  Min(Sb) = 0.002 Max(Sb) = 0.00200178
DICPCG:  Solving for p, Initial residual = 4.96445e-09, Final residual = 9.32153e-13, No Iterations 55
ExecutionTime = 0.1875 s  ClockTime = 1 s

Coats CFL Number mean: 1.76073e-12 max: 3.54717e-12
deltaT = 8.91609e-05
Time = 0.000474966

diagonal:  Solving for Sb, Initial residual = 0, Final residual = 0, No Iterations 0
Saturation b:  Min(Sb) = 0.002 Max(Sb) = 0.00200219
DICPCG:  Solving for p, Initial residual = 5.95734e-09, Final residual = 8.47484e-13, No Iterations 56
ExecutionTime = 0.1875 s  ClockTime = 1 s

Coats CFL Number mean: 2.11287e-12 max: 4.26011e-12
deltaT = 0.000106993
Time = 0.000581959

diagonal:  Solving for Sb, Initial residual = 0, Final residual = 0, No Iterations 0
Saturation b:  Min(Sb) = 0.002 Max(Sb) = 0.00200269
DICPCG:  Solving for p, Initial residual = 7.14854e-09, Final residual = 8.97269e-13, No Iterations 57
ExecutionTime = 0.203125 s  ClockTime = 1 s

Coats CFL Number mean: 2.53545e-12 max: 5.11718e-12
deltaT = 0.000128392
Time = 0.000710351

diagonal:  Solving for Sb, Initial residual = 0, Final residual = 0, No Iterations 0
Saturation b:  Min(Sb) = 0.002 Max(Sb) = 0.00200328
DICPCG:  Solving for p, Initial residual = 8.57813e-09, Final residual = 7.84758e-13, No Iterations 58
ExecutionTime = 0.21875 s  ClockTime = 1 s

Coats CFL Number mean: 3.04254e-12 max: 6.14788e-12
deltaT = 0.00015407
Time = 0.000864421

diagonal:  Solving for Sb, Initial residual = 0, Final residual = 0, No Iterations 0
Saturation b:  Min(Sb) = 0.002 Max(Sb) = 0.00200399
DICPCG:  Solving for p, Initial residual = 1.02935e-08, Final residual = 9.40426e-13, No Iterations 58
ExecutionTime = 0.21875 s  ClockTime = 1 s

Coats CFL Number mean: 3.65105e-12 max: 7.38793e-12
deltaT = 0.000184884
Time = 0.0010493

diagonal:  Solving for Sb, Initial residual = 0, Final residual = 0, No Iterations 0
Saturation b:  Min(Sb) = 0.002 Max(Sb) = 0.00200485
DICPCG:  Solving for p, Initial residual = 1.23522e-08, Final residual = 9.12042e-13, No Iterations 59
ExecutionTime = 0.234375 s  ClockTime = 1 s

Coats CFL Number mean: 4.38127e-12 max: 8.88061e-12
deltaT = 0.000221861
Time = 0.00127117

diagonal:  Solving for Sb, Initial residual = 0, Final residual = 0, No Iterations 0
Saturation b:  Min(Sb) = 0.002 Max(Sb) = 0.00200587
DICPCG:  Solving for p, Initial residual = 1.48224e-08, Final residual = 8.65361e-13, No Iterations 60
ExecutionTime = 0.234375 s  ClockTime = 1 s

Coats CFL Number mean: 5.25752e-12 max: 1.06785e-11
deltaT = 0.000266233
Time = 0.0015374

diagonal:  Solving for Sb, Initial residual = 0, Final residual = 0, No Iterations 0
Saturation b:  Min(Sb) = 0.002 Max(Sb) = 0.0020071
DICPCG:  Solving for p, Initial residual = 1.77866e-08, Final residual = 7.82913e-13, No Iterations 61
ExecutionTime = 0.25 s  ClockTime = 1 s

Coats CFL Number mean: 6.30903e-12 max: 1.28455e-11
deltaT = 0.000319479
Time = 0.00185688

diagonal:  Solving for Sb, Initial residual = 0, Final residual = 0, No Iterations 0
Saturation b:  Min(Sb) = 0.002 Max(Sb) = 0.00200858
DICPCG:  Solving for p, Initial residual = 2.13437e-08, Final residual = 9.35049e-13, No Iterations 61
ExecutionTime = 0.25 s  ClockTime = 1 s

Coats CFL Number mean: 7.57085e-12 max: 1.54599e-11
deltaT = 0.000383374
Time = 0.00224025

diagonal:  Solving for Sb, Initial residual = 0, Final residual = 0, No Iterations 0
Saturation b:  Min(Sb) = 0.002 Max(Sb) = 0.00201035
DICPCG:  Solving for p, Initial residual = 2.56124e-08, Final residual = 8.94217e-13, No Iterations 62
ExecutionTime = 0.265625 s  ClockTime = 1 s

Coats CFL Number mean: 9.08502e-12 max: 1.8617e-11
deltaT = 0.000460049
Time = 0.0027003

diagonal:  Solving for Sb, Initial residual = 0, Final residual = 0, No Iterations 0
Saturation b:  Min(Sb) = 0.002 Max(Sb) = 0.00201248
DICPCG:  Solving for p, Initial residual = 3.07347e-08, Final residual = 9.56661e-13, No Iterations 63
ExecutionTime = 0.265625 s  ClockTime = 1 s

Coats CFL Number mean: 1.09021e-11 max: 2.24346e-11
deltaT = 0.000552058
Time = 0.00325236

diagonal:  Solving for Sb, Initial residual = 0, Final residual = 0, No Iterations 0
Saturation b:  Min(Sb) = 0.002 Max(Sb) = 0.00201503
DICPCG:  Solving for p, Initial residual = 3.68816e-08, Final residual = 8.06404e-13, No Iterations 65
ExecutionTime = 0.265625 s  ClockTime = 1 s

Coats CFL Number mean: 1.30825e-11 max: 2.70573e-11
deltaT = 0.000662469
Time = 0.00391483

diagonal:  Solving for Sb, Initial residual = 0, Final residual = 0, No Iterations 0
Saturation b:  Min(Sb) = 0.002 Max(Sb) = 0.00201809
DICPCG:  Solving for p, Initial residual = 4.42576e-08, Final residual = 9.64692e-13, No Iterations 65
ExecutionTime = 0.265625 s  ClockTime = 1 s

Coats CFL Number mean: 1.56991e-11 max: 3.26649e-11
deltaT = 0.000794963
Time = 0.00470979

diagonal:  Solving for Sb, Initial residual = 0, Final residual = 0, No Iterations 0
Saturation b:  Min(Sb) = 0.002 Max(Sb) = 0.00202177
DICPCG:  Solving for p, Initial residual = 5.31092e-08, Final residual = 7.54672e-13, No Iterations 66
ExecutionTime = 0.28125 s  ClockTime = 1 s

Coats CFL Number mean: 1.8839e-11 max: 3.94813e-11
deltaT = 0.000953955
Time = 0.00566374

diagonal:  Solving for Sb, Initial residual = 0, Final residual = 0, No Iterations 0
Saturation b:  Min(Sb) = 0.002 Max(Sb) = 0.00202617
DICPCG:  Solving for p, Initial residual = 6.37308e-08, Final residual = 9.00761e-13, No Iterations 66
ExecutionTime = 0.296875 s  ClockTime = 1 s

Coats CFL Number mean: 2.26069e-11 max: 4.77872e-11
deltaT = 0.00114474
Time = 0.00680849

diagonal:  Solving for Sb, Initial residual = 0, Final residual = 0, No Iterations 0
Saturation b:  Min(Sb) = 0.002 Max(Sb) = 0.00203146
DICPCG:  Solving for p, Initial residual = 7.64769e-08, Final residual = 8.07033e-13, No Iterations 67
ExecutionTime = 0.296875 s  ClockTime = 1 s

Coats CFL Number mean: 2.71283e-11 max: 5.79372e-11
deltaT = 0.00137369
Time = 0.00818217

diagonal:  Solving for Sb, Initial residual = 0, Final residual = 0, No Iterations 0
Saturation b:  Min(Sb) = 0.002 Max(Sb) = 0.00203781
DICPCG:  Solving for p, Initial residual = 9.17721e-08, Final residual = 9.4085e-13, No Iterations 67
ExecutionTime = 0.3125 s  ClockTime = 1 s

Coats CFL Number mean: 3.25542e-11 max: 7.0383e-11
deltaT = 0.00164842
Time = 0.0098306

diagonal:  Solving for Sb, Initial residual = 0, Final residual = 0, No Iterations 0
Saturation b:  Min(Sb) = 0.002 Max(Sb) = 0.00204543
DICPCG:  Solving for p, Initial residual = 1.10127e-07, Final residual = 8.40319e-13, No Iterations 68
ExecutionTime = 0.3125 s  ClockTime = 1 s

Coats CFL Number mean: 3.90654e-11 max: 8.57041e-11
deltaT = 0.0019781
Time = 0.0118087

diagonal:  Solving for Sb, Initial residual = 0, Final residual = 0, No Iterations 0
Saturation b:  Min(Sb) = 0.002 Max(Sb) = 0.00205457
DICPCG:  Solving for p, Initial residual = 1.32152e-07, Final residual = 7.15309e-13, No Iterations 69
ExecutionTime = 0.328125 s  ClockTime = 1 s

Coats CFL Number mean: 4.68788e-11 max: 1.04651e-10
deltaT = 0.00237372
Time = 0.0141824

diagonal:  Solving for Sb, Initial residual = 0, Final residual = 0, No Iterations 0
Saturation b:  Min(Sb) = 0.002 Max(Sb) = 0.00206554
DICPCG:  Solving for p, Initial residual = 1.58583e-07, Final residual = 8.62439e-13, No Iterations 69
ExecutionTime = 0.34375 s  ClockTime = 1 s

Coats CFL Number mean: 5.62554e-11 max: 1.28207e-10
deltaT = 0.00284845
Time = 0.0170309

diagonal:  Solving for Sb, Initial residual = 0, Final residual = 0, No Iterations 0
Saturation b:  Min(Sb) = 0.002 Max(Sb) = 0.00207871
DICPCG:  Solving for p, Initial residual = 1.90301e-07, Final residual = 7.65255e-13, No Iterations 70
ExecutionTime = 0.359375 s  ClockTime = 1 s

Coats CFL Number mean: 6.75074e-11 max: 1.57673e-10
deltaT = 0.0034181
Time = 0.020449

diagonal:  Solving for Sb, Initial residual = 0, Final residual = 0, No Iterations 0
Saturation b:  Min(Sb) = 0.002 Max(Sb) = 0.0020945
DICPCG:  Solving for p, Initial residual = 2.2836e-07, Final residual = 9.18795e-13, No Iterations 70
ExecutionTime = 0.359375 s  ClockTime = 1 s

Coats CFL Number mean: 8.10097e-11 max: 1.94787e-10
deltaT = 0.00410172
Time = 0.0245507

diagonal:  Solving for Sb, Initial residual = 0, Final residual = 0, No Iterations 0
Saturation b:  Min(Sb) = 0.002 Max(Sb) = 0.00211346
DICPCG:  Solving for p, Initial residual = 2.74035e-07, Final residual = 8.42614e-13, No Iterations 71
ExecutionTime = 0.375 s  ClockTime = 1 s

Coats CFL Number mean: 9.72142e-11 max: 2.41911e-10
deltaT = 0.00492204
Time = 0.0294727

diagonal:  Solving for Sb, Initial residual = 0, Final residual = 0, No Iterations 0
Saturation b:  Min(Sb) = 0.002 Max(Sb) = 0.0021362
DICPCG:  Solving for p, Initial residual = 3.28844e-07, Final residual = 6.92838e-13, No Iterations 72
ExecutionTime = 0.375 s  ClockTime = 1 s

Coats CFL Number mean: 1.1666e-10 max: 3.02273e-10
deltaT = 0.0059064
Time = 0.0353791

diagonal:  Solving for Sb, Initial residual = 0, Final residual = 0, No Iterations 0
Saturation b:  Min(Sb) = 0.002 Max(Sb) = 0.0021635
DICPCG:  Solving for p, Initial residual = 3.94616e-07, Final residual = 8.31376e-13, No Iterations 72
ExecutionTime = 0.390625 s  ClockTime = 1 s

Coats CFL Number mean: 1.39996e-10 max: 3.80363e-10
deltaT = 0.00708758
Time = 0.0424667

diagonal:  Solving for Sb, Initial residual = 0, Final residual = 0, No Iterations 0
Saturation b:  Min(Sb) = 0.002 Max(Sb) = 0.00219625
DICPCG:  Solving for p, Initial residual = 4.73542e-07, Final residual = 9.97779e-13, No Iterations 72
ExecutionTime = 0.390625 s  ClockTime = 1 s

Coats CFL Number mean: 1.68002e-10 max: 4.82489e-10
deltaT = 0.00850485
Time = 0.0509716

diagonal:  Solving for Sb, Initial residual = 0, Final residual = 0, No Iterations 0
Saturation b:  Min(Sb) = 0.002 Max(Sb) = 0.00223556
DICPCG:  Solving for p, Initial residual = 5.68247e-07, Final residual = 9.10497e-13, No Iterations 73
ExecutionTime = 0.40625 s  ClockTime = 1 s

Coats CFL Number mean: 2.01608e-10 max: 6.1764e-10
deltaT = 0.0102058
Time = 0.0611773

diagonal:  Solving for Sb, Initial residual = 0, Final residual = 0, No Iterations 0
Saturation b:  Min(Sb) = 0.002 Max(Sb) = 0.00228272
DICPCG:  Solving for p, Initial residual = 6.8191e-07, Final residual = 8.34206e-13, No Iterations 74
ExecutionTime = 0.421875 s  ClockTime = 1 s

Coats CFL Number mean: 2.41946e-10 max: 7.98828e-10
deltaT = 0.0122465
Time = 0.0734238

diagonal:  Solving for Sb, Initial residual = 0, Final residual = 0, No Iterations 0
Saturation b:  Min(Sb) = 0.002 Max(Sb) = 0.00233932
DICPCG:  Solving for p, Initial residual = 8.18293e-07, Final residual = 8.01031e-13, No Iterations 75
ExecutionTime = 0.421875 s  ClockTime = 1 s

Coats CFL Number mean: 2.90353e-10 max: 1.04502e-09
deltaT = 0.0146955
Time = 0.0881193

diagonal:  Solving for Sb, Initial residual = 0, Final residual = 0, No Iterations 0
Saturation b:  Min(Sb) = 0.002 Max(Sb) = 0.00240723
DICPCG:  Solving for p, Initial residual = 9.81971e-07, Final residual = 9.60058e-13, No Iterations 75
ExecutionTime = 0.4375 s  ClockTime = 1 s

Coats CFL Number mean: 3.48458e-10 max: 1.38439e-09
deltaT = 0.0176342
Time = 0.105754

diagonal:  Solving for Sb, Initial residual = 0, Final residual = 0, No Iterations 0
Saturation b:  Min(Sb) = 0.002 Max(Sb) = 0.00248872
DICPCG:  Solving for p, Initial residual = 1.17839e-06, Final residual = 8.41339e-13, No Iterations 76
ExecutionTime = 0.453125 s  ClockTime = 1 s

Coats CFL Number mean: 4.18202e-10 max: 1.85921e-09
deltaT = 0.0211595
Time = 0.126913

diagonal:  Solving for Sb, Initial residual = 0, Final residual = 0, No Iterations 0
Saturation b:  Min(Sb) = 0.002 Max(Sb) = 0.00258651
DICPCG:  Solving for p, Initial residual = 1.41405e-06, Final residual = 7.48449e-13, No Iterations 77
ExecutionTime = 0.453125 s  ClockTime = 1 s

Coats CFL Number mean: 5.01901e-10 max: 2.5336e-09
deltaT = 0.025391
Time = 0.152304

diagonal:  Solving for Sb, Initial residual = 0, Final residual = 0, No Iterations 0
Saturation b:  Min(Sb) = 0.002 Max(Sb) = 0.00270385
DICPCG:  Solving for p, Initial residual = 1.69695e-06, Final residual = 8.9818e-13, No Iterations 77
ExecutionTime = 0.46875 s  ClockTime = 1 s

Coats CFL Number mean: 6.02418e-10 max: 3.50663e-09
deltaT = 0.0304692
Time = 0.182773

diagonal:  Solving for Sb, Initial residual = 0, Final residual = 0, No Iterations 0
Saturation b:  Min(Sb) = 0.002 Max(Sb) = 0.00284465
DICPCG:  Solving for p, Initial residual = 2.03652e-06, Final residual = 8.34336e-13, No Iterations 78
ExecutionTime = 0.46875 s  ClockTime = 1 s

Coats CFL Number mean: 7.23128e-10 max: 4.93221e-09
deltaT = 0.0365604
Time = 0.219334

diagonal:  Solving for Sb, Initial residual = 0, Final residual = 0, No Iterations 0
Saturation b:  Min(Sb) = 0.002 Max(Sb) = 0.00301361
DICPCG:  Solving for p, Initial residual = 2.44388e-06, Final residual = 6.37525e-13, No Iterations 79
ExecutionTime = 0.484375 s  ClockTime = 1 s

Coats CFL Number mean: 8.68046e-10 max: 7.05203e-09
deltaT = 0.0438673
Time = 0.263201

diagonal:  Solving for Sb, Initial residual = 0, Final residual = 0, No Iterations 0
Saturation b:  Min(Sb) = 0.002 Max(Sb) = 0.00321634
DICPCG:  Solving for p, Initial residual = 2.93266e-06, Final residual = 7.65115e-13, No Iterations 79
ExecutionTime = 0.5 s  ClockTime = 1 s

Coats CFL Number mean: 1.0421e-09 max: 1.0251e-08
deltaT = 0.0526316
Time = 0.315833

diagonal:  Solving for Sb, Initial residual = 0, Final residual = 0, No Iterations 0
Saturation b:  Min(Sb) = 0.002 Max(Sb) = 0.00345956
DICPCG:  Solving for p, Initial residual = 3.51908e-06, Final residual = 9.18368e-13, No Iterations 79
ExecutionTime = 0.515625 s  ClockTime = 1 s

Coats CFL Number mean: 1.25119e-09 max: 1.51467e-08
deltaT = 0.0631472
Time = 0.37898

diagonal:  Solving for Sb, Initial residual = 0, Final residual = 0, No Iterations 0
Saturation b:  Min(Sb) = 0.002 Max(Sb) = 0.00375139
DICPCG:  Solving for p, Initial residual = 4.2229e-06, Final residual = 7.26198e-13, No Iterations 80
ExecutionTime = 0.515625 s  ClockTime = 1 s

Coats CFL Number mean: 1.50261e-09 max: 2.27414e-08
deltaT = 0.0757575
Time = 0.454737

diagonal:  Solving for Sb, Initial residual = 0, Final residual = 0, No Iterations 0
Saturation b:  Min(Sb) = 0.002 Max(Sb) = 0.00410149
DICPCG:  Solving for p, Initial residual = 5.06725e-06, Final residual = 8.71793e-13, No Iterations 80
ExecutionTime = 0.53125 s  ClockTime = 1 s

Coats CFL Number mean: 1.805e-09 max: 3.46679e-08
deltaT = 0.090909
Time = 0.545646

diagonal:  Solving for Sb, Initial residual = 0, Final residual = 0, No Iterations 0
Saturation b:  Min(Sb) = 0.002 Max(Sb) = 0.0045216
DICPCG:  Solving for p, Initial residual = 6.08219e-06, Final residual = 8.04844e-13, No Iterations 81
ExecutionTime = 0.53125 s  ClockTime = 1 s

Coats CFL Number mean: 2.16978e-09 max: 5.36358e-08
deltaT = 0.109075
Time = 0.654721

diagonal:  Solving for Sb, Initial residual = 0, Final residual = 0, No Iterations 0
Saturation b:  Min(Sb) = 0.002 Max(Sb) = 0.00502567
DICPCG:  Solving for p, Initial residual = 7.29972e-06, Final residual = 9.66755e-13, No Iterations 81
ExecutionTime = 0.546875 s  ClockTime = 1 s

Coats CFL Number mean: 2.60957e-09 max: 8.40957e-08
deltaT = 0.13089
Time = 0.785611

diagonal:  Solving for Sb, Initial residual = 0, Final residual = 0, No Iterations 0
Saturation b:  Min(Sb) = 0.002 Max(Sb) = 0.00563055
DICPCG:  Solving for p, Initial residual = 8.76277e-06, Final residual = 9.84922e-13, No Iterations 82
ExecutionTime = 0.5625 s  ClockTime = 1 s

Coats CFL Number mean: 3.14177e-09 max: 1.33521e-07
deltaT = 0.157035
Time = 0.942646

diagonal:  Solving for Sb, Initial residual = 0, Final residual = 0, No Iterations 0
Saturation b:  Min(Sb) = 0.002 Max(Sb) = 0.00635626
DICPCG:  Solving for p, Initial residual = 1.05176e-05, Final residual = 8.17465e-13, No Iterations 83
ExecutionTime = 0.5625 s  ClockTime = 1 s

Coats CFL Number mean: 3.78642e-09 max: 2.14341e-07
deltaT = 0.188394
Time = 1.13104

diagonal:  Solving for Sb, Initial residual = 0, Final residual = 0, No Iterations 0
Saturation b:  Min(Sb) = 0.002 Max(Sb) = 0.00722688
DICPCG:  Solving for p, Initial residual = 1.26243e-05, Final residual = 9.82457e-13, No Iterations 83
ExecutionTime = 0.578125 s  ClockTime = 1 s

Coats CFL Number mean: 4.57113e-09 max: 3.47539e-07
deltaT = 0.226039
Time = 1.35708

diagonal:  Solving for Sb, Initial residual = 0, Final residual = 0, No Iterations 0
Saturation b:  Min(Sb) = 0.002 Max(Sb) = 0.00827147
DICPCG:  Solving for p, Initial residual = 1.51562e-05, Final residual = 8.00707e-13, No Iterations 84
ExecutionTime = 0.59375 s  ClockTime = 1 s

Coats CFL Number mean: 5.53256e-09 max: 5.68634e-07
deltaT = 0.271148
Time = 1.62823

diagonal:  Solving for Sb, Initial residual = 0, Final residual = 0, No Iterations 0
Saturation b:  Min(Sb) = 0.002 Max(Sb) = 0.00952451
DICPCG:  Solving for p, Initial residual = 1.81941e-05, Final residual = 9.63266e-13, No Iterations 84
ExecutionTime = 0.59375 s  ClockTime = 1 s

Coats CFL Number mean: 6.71773e-09 max: 9.37484e-07
deltaT = 0.325094
Time = 1.95332

diagonal:  Solving for Sb, Initial residual = 0, Final residual = 0, No Iterations 0
Saturation b:  Min(Sb) = 0.002 Max(Sb) = 0.0110269
DICPCG:  Solving for p, Initial residual = 2.18329e-05, Final residual = 7.52647e-13, No Iterations 85
ExecutionTime = 0.609375 s  ClockTime = 1 s

Coats CFL Number mean: 8.19148e-09 max: 1.55515e-06
deltaT = 0.390011
Time = 2.34333

diagonal:  Solving for Sb, Initial residual = 0, Final residual = 0, No Iterations 0
Saturation b:  Min(Sb) = 0.002 Max(Sb) = 0.0128292
DICPCG:  Solving for p, Initial residual = 2.622e-05, Final residual = 9.06825e-13, No Iterations 85
ExecutionTime = 0.625 s  ClockTime = 1 s

Coats CFL Number mean: 1.00607e-08 max: 2.5968e-06
deltaT = 0.467277
Time = 2.81061

diagonal:  Solving for Sb, Initial residual = 0, Final residual = 0, No Iterations 0
Saturation b:  Min(Sb) = 0.002 Max(Sb) = 0.0149886
DICPCG:  Solving for p, Initial residual = 3.14539e-05, Final residual = 7.31086e-13, No Iterations 86
ExecutionTime = 0.625 s  ClockTime = 1 s

Coats CFL Number mean: 1.24513e-08 max: 4.35106e-06
deltaT = 0.56052
Time = 3.37113

diagonal:  Solving for Sb, Initial residual = 0, Final residual = 0, No Iterations 0
Saturation b:  Min(Sb) = 0.002 Max(Sb) = 0.0175788
DICPCG:  Solving for p, Initial residual = 3.77867e-05, Final residual = 8.81937e-13, No Iterations 86
ExecutionTime = 0.640625 s  ClockTime = 1 s

Coats CFL Number mean: 1.56163e-08 max: 7.33164e-06
deltaT = 0.672013
Time = 4.04314

diagonal:  Solving for Sb, Initial residual = 0, Final residual = 0, No Iterations 0
Saturation b:  Min(Sb) = 0.002 Max(Sb) = 0.0206843
DICPCG:  Solving for p, Initial residual = 4.53836e-05, Final residual = 6.52528e-13, No Iterations 87
ExecutionTime = 0.65625 s  ClockTime = 1 s

Coats CFL Number mean: 1.98893e-08 max: 1.23923e-05
deltaT = 0.806416
Time = 4.84956

diagonal:  Solving for Sb, Initial residual = 0, Final residual = 0, No Iterations 0
Saturation b:  Min(Sb) = 0.002 Max(Sb) = 0.0244108
DICPCG:  Solving for p, Initial residual = 5.45757e-05, Final residual = 7.88594e-13, No Iterations 87
ExecutionTime = 0.671875 s  ClockTime = 1 s

Coats CFL Number mean: 2.58773e-08 max: 2.10363e-05
deltaT = 0.965159
Time = 5.81472

diagonal:  Solving for Sb, Initial residual = 0, Final residual = 0, No Iterations 0
Saturation b:  Min(Sb) = 0.002 Max(Sb) = 0.0288709
DICPCG:  Solving for p, Initial residual = 6.54847e-05, Final residual = 9.5146e-13, No Iterations 87
ExecutionTime = 0.6875 s  ClockTime = 1 s

Coats CFL Number mean: 3.44252e-08 max: 3.56883e-05
deltaT = 1.15728
Time = 6.97199

diagonal:  Solving for Sb, Initial residual = 0, Final residual = 0, No Iterations 0
Saturation b:  Min(Sb) = 0.002 Max(Sb) = 0.0342187
DICPCG:  Solving for p, Initial residual = 7.87548e-05, Final residual = 7.73281e-13, No Iterations 88
ExecutionTime = 0.6875 s  ClockTime = 1 s

Coats CFL Number mean: 4.72496e-08 max: 6.07974e-05
deltaT = 1.38873
Time = 8.36073

diagonal:  Solving for Sb, Initial residual = 0, Final residual = 0, No Iterations 0
Saturation b:  Min(Sb) = 0.002 Max(Sb) = 0.040636
DICPCG:  Solving for p, Initial residual = 9.48404e-05, Final residual = 9.35003e-13, No Iterations 88
ExecutionTime = 0.703125 s  ClockTime = 1 s

Coats CFL Number mean: 6.70718e-08 max: 0.000103884
deltaT = 1.66648
Time = 10.0272

diagonal:  Solving for Sb, Initial residual = 0, Final residual = 0, No Iterations 0
Saturation b:  Min(Sb) = 0.002 Max(Sb) = 0.0483366
DICPCG:  Solving for p, Initial residual = 0.000114285, Final residual = 7.77984e-13, No Iterations 89
ExecutionTime = 0.71875 s  ClockTime = 1 s

Coats CFL Number mean: 9.85569e-08 max: 0.000177841
deltaT = 1.99977
Time = 12.027

diagonal:  Solving for Sb, Initial residual = 0, Final residual = 0, No Iterations 0
Saturation b:  Min(Sb) = 0.002 Max(Sb) = 0.0575771
DICPCG:  Solving for p, Initial residual = 0.000137816, Final residual = 9.37243e-13, No Iterations 89
ExecutionTime = 0.71875 s  ClockTime = 1 s

Coats CFL Number mean: 1.49855e-07 max: 0.00030493
deltaT = 2.37973
Time = 14.4067

diagonal:  Solving for Sb, Initial residual = 0, Final residual = 0, No Iterations 0
Saturation b:  Min(Sb) = 0.002 Max(Sb) = 0.068573
DICPCG:  Solving for p, Initial residual = 0.000164965, Final residual = 6.78522e-13, No Iterations 90
ExecutionTime = 0.734375 s  ClockTime = 1 s

Coats CFL Number mean: 2.32773e-07 max: 0.000517762
deltaT = 2.83847
Time = 17.2452

diagonal:  Solving for Sb, Initial residual = 0, Final residual = 0, No Iterations 0
Saturation b:  Min(Sb) = 0.002 Max(Sb) = 0.0816879
DICPCG:  Solving for p, Initial residual = 0.000198087, Final residual = 8.12123e-13, No Iterations 90
ExecutionTime = 0.75 s  ClockTime = 1 s

Coats CFL Number mean: 3.72178e-07 max: 0.000880836
deltaT = 3.37326
Time = 20.6184

diagonal:  Solving for Sb, Initial residual = 0, Final residual = 0, No Iterations 0
Saturation b:  Min(Sb) = 0.002 Max(Sb) = 0.0972728
DICPCG:  Solving for p, Initial residual = 0.00023723, Final residual = 9.61718e-13, No Iterations 90
ExecutionTime = 0.75 s  ClockTime = 1 s

Coats CFL Number mean: 6.05729e-07 max: 0.00149074
deltaT = 4.02424
Time = 24.6427

diagonal:  Solving for Sb, Initial residual = 0, Final residual = 0, No Iterations 0
Saturation b:  Min(Sb) = 0.002 Max(Sb) = 0.115863
DICPCG:  Solving for p, Initial residual = 0.000285426, Final residual = 6.70398e-13, No Iterations 91
ExecutionTime = 0.765625 s  ClockTime = 1 s

Coats CFL Number mean: 1.00837e-06 max: 0.00253254
deltaT = 4.79484
Time = 29.4375

diagonal:  Solving for Sb, Initial residual = 0, Final residual = 0, No Iterations 0
Saturation b:  Min(Sb) = 0.002 Max(Sb) = 0.138009
DICPCG:  Solving for p, Initial residual = 0.000343258, Final residual = 7.92881e-13, No Iterations 91
ExecutionTime = 0.78125 s  ClockTime = 1 s

Coats CFL Number mean: 1.702e-06 max: 0.00429487
deltaT = 5.65545
Time = 35.093

diagonal:  Solving for Sb, Initial residual = 0, Final residual = 0, No Iterations 0
Saturation b:  Min(Sb) = 0.002 Max(Sb) = 0.16412
DICPCG:  Solving for p, Initial residual = 0.000408983, Final residual = 9.57459e-13, No Iterations 91
ExecutionTime = 0.796875 s  ClockTime = 1 s

Coats CFL Number mean: 2.86977e-06 max: 0.00718301
deltaT = 6.71584
Time = 41.8088

diagonal:  Solving for Sb, Initial residual = 0, Final residual = 0, No Iterations 0
Saturation b:  Min(Sb) = 0.002 Max(Sb) = 0.195106
DICPCG:  Solving for p, Initial residual = 0.000490247, Final residual = 7.98908e-13, No Iterations 92
ExecutionTime = 0.8125 s  ClockTime = 1 s

Coats CFL Number mean: 4.91954e-06 max: 0.0120808
deltaT = 8.00735
Time = 49.8162

diagonal:  Solving for Sb, Initial residual = 0, Final residual = 0, No Iterations 0
Saturation b:  Min(Sb) = 0.002 Max(Sb) = 0.232002
DICPCG:  Solving for p, Initial residual = 0.000588797, Final residual = 5.95132e-13, No Iterations 93
ExecutionTime = 0.828125 s  ClockTime = 1 s

Coats CFL Number mean: 8.55217e-06 max: 0.0203999
deltaT = 9.53256
Time = 59.3487

diagonal:  Solving for Sb, Initial residual = 0, Final residual = 0, No Iterations 0
Saturation b:  Min(Sb) = 0.002 Max(Sb) = 0.275811
DICPCG:  Solving for p, Initial residual = 0.000702909, Final residual = 8.1739e-13, No Iterations 93
ExecutionTime = 0.828125 s  ClockTime = 1 s

Coats CFL Number mean: 1.49701e-05 max: 0.0343567
deltaT = 11.2148
Time = 70.5635

diagonal:  Solving for Sb, Initial residual = 0, Final residual = 0, No Iterations 0
Saturation b:  Min(Sb) = 0.002 Max(Sb) = 0.327082
DICPCG:  Solving for p, Initial residual = 0.000822389, Final residual = 7.83976e-13, No Iterations 94
ExecutionTime = 0.84375 s  ClockTime = 1 s

Coats CFL Number mean: 2.59881e-05 max: 0.0568564
deltaT = 12.8169
Time = 83.3804

diagonal:  Solving for Sb, Initial residual = 0, Final residual = 0, No Iterations 0
Saturation b:  Min(Sb) = 0.002 Max(Sb) = 0.385072
DICPCG:  Solving for p, Initial residual = 0.000939552, Final residual = 7.95199e-13, No Iterations 95
ExecutionTime = 0.859375 s  ClockTime = 1 s

Coats CFL Number mean: 4.35296e-05 max: 0.0900103
deltaT = 15.1472
Time = 98.5276

diagonal:  Solving for Sb, Initial residual = 0, Final residual = 0, No Iterations 0
Saturation b:  Min(Sb) = 0.002 Max(Sb) = 0.45224
DICPCG:  Solving for p, Initial residual = 0.00108849, Final residual = 6.78628e-13, No Iterations 96
ExecutionTime = 0.875 s  ClockTime = 1 s

Coats CFL Number mean: 7.59165e-05 max: 0.14655
deltaT = 16.8303
Time = 115.358

diagonal:  Solving for Sb, Initial residual = 0, Final residual = 0, No Iterations 0
Saturation b:  Min(Sb) = 0.002 Max(Sb) = 0.523888
DICPCG:  Solving for p, Initial residual = 0.00119171, Final residual = 7.39925e-13, No Iterations 96
ExecutionTime = 0.875 s  ClockTime = 1 s

Coats CFL Number mean: 0.000122139 max: 0.217929
deltaT = 19.2346
Time = 134.592

diagonal:  Solving for Sb, Initial residual = 0, Final residual = 0, No Iterations 0
Saturation b:  Min(Sb) = 0.002 Max(Sb) = 0.599509
DICPCG:  Solving for p, Initial residual = 0.00126944, Final residual = 7.4216e-13, No Iterations 96
ExecutionTime = 0.890625 s  ClockTime = 1 s

Coats CFL Number mean: 0.000196199 max: 0.322749
deltaT = 23.0815
Time = 157.674

diagonal:  Solving for Sb, Initial residual = 0, Final residual = 0, No Iterations 0
Saturation b:  Min(Sb) = 0.002 Max(Sb) = 0.676313
DICPCG:  Solving for p, Initial residual = 0.00128843, Final residual = 8.21898e-13, No Iterations 96
ExecutionTime = 0.90625 s  ClockTime = 1 s

Coats CFL Number mean: 0.00028725 max: 0.468087
deltaT = 23.0815
Time = 180.755

diagonal:  Solving for Sb, Initial residual = 0, Final residual = 0, No Iterations 0
Saturation b:  Min(Sb) = 0.002 Max(Sb) = 0.72849
DICPCG:  Solving for p, Initial residual = 0.00101063, Final residual = 8.38986e-13, No Iterations 97
ExecutionTime = 0.90625 s  ClockTime = 1 s

Coats CFL Number mean: 0.000251045 max: 0.467239
deltaT = 23.0815
Time = 203.837

diagonal:  Solving for Sb, Initial residual = 0, Final residual = 0, No Iterations 0
Saturation b:  Min(Sb) = 0.002 Max(Sb) = 0.758323
DICPCG:  Solving for p, Initial residual = 0.000881589, Final residual = 9.50447e-13, No Iterations 96
ExecutionTime = 0.921875 s  ClockTime = 1 s

Coats CFL Number mean: 0.000181576 max: 0.369116
deltaT = 23.0815
Time = 226.918

diagonal:  Solving for Sb, Initial residual = 0, Final residual = 0, No Iterations 0
Saturation b:  Min(Sb) = 0.002 Max(Sb) = 0.776163
DICPCG:  Solving for p, Initial residual = 0.000934519, Final residual = 7.65664e-13, No Iterations 96
ExecutionTime = 0.9375 s  ClockTime = 1 s

Coats CFL Number mean: 0.000126267 max: 0.235424
deltaT = 23.0815
Time = 250

diagonal:  Solving for Sb, Initial residual = 0, Final residual = 0, No Iterations 0
Saturation b:  Min(Sb) = 0.002 Max(Sb) = 0.789849
DICPCG:  Solving for p, Initial residual = 0.00101723, Final residual = 6.48615e-13, No Iterations 96
ExecutionTime = 0.984375 s  ClockTime = 2 s

Coats CFL Number mean: 9.75664e-05 max: 0.139367
deltaT = 25
Time = 275

diagonal:  Solving for Sb, Initial residual = 0, Final residual = 0, No Iterations 0
Saturation b:  Min(Sb) = 0.002 Max(Sb) = 0.803533
DICPCG:  Solving for p, Initial residual = 0.0011658, Final residual = 9.48577e-13, No Iterations 95
ExecutionTime = 1 s  ClockTime = 2 s

Coats CFL Number mean: 0.000103614 max: 0.243908
deltaT = 28.125
Time = 303.125

diagonal:  Solving for Sb, Initial residual = 0, Final residual = 0, No Iterations 0
Saturation b:  Min(Sb) = 0.002 Max(Sb) = 0.814254
DICPCG:  Solving for p, Initial residual = 0.0013183, Final residual = 5.76085e-13, No Iterations 96
ExecutionTime = 1 s  ClockTime = 2 s

Coats CFL Number mean: 0.00015386 max: 0.424768
deltaT = 32.8125
Time = 335.938

diagonal:  Solving for Sb, Initial residual = 0, Final residual = 0, No Iterations 0
Saturation b:  Min(Sb) = 0.002 Max(Sb) = 0.823
DICPCG:  Solving for p, Initial residual = 0.00146892, Final residual = 6.07961e-13, No Iterations 96
ExecutionTime = 1.01562 s  ClockTime = 2 s

Coats CFL Number mean: 0.000290303 max: 0.738676
deltaT = 32.8125
Time = 368.75

diagonal:  Solving for Sb, Initial residual = 0, Final residual = 0, No Iterations 0
Saturation b:  Min(Sb) = 0.002 Max(Sb) = 0.829072
DICPCG:  Solving for p, Initial residual = 0.00128561, Final residual = 7.05016e-13, No Iterations 96
ExecutionTime = 1.03125 s  ClockTime = 2 s

Coats CFL Number mean: 0.000436196 max: 0.92313
deltaT = 26.25
Time = 395

diagonal:  Solving for Sb, Initial residual = 0, Final residual = 0, No Iterations 0
Saturation b:  Min(Sb) = 0.002 Max(Sb) = 0.83158
DICPCG:  Solving for p, Initial residual = 0.000894214, Final residual = 5.82079e-13, No Iterations 96
ExecutionTime = 1.04688 s  ClockTime = 2 s

Coats CFL Number mean: 0.000411046 max: 0.76366
deltaT = 21
Time = 416

diagonal:  Solving for Sb, Initial residual = 0, Final residual = 0, No Iterations 0
Saturation b:  Min(Sb) = 0.002 Max(Sb) = 0.833412
DICPCG:  Solving for p, Initial residual = 0.000671289, Final residual = 8.78367e-13, No Iterations 95
ExecutionTime = 1.0625 s  ClockTime = 2 s

Coats CFL Number mean: 0.00033545 max: 0.599165
deltaT = 21
Time = 437

diagonal:  Solving for Sb, Initial residual = 0, Final residual = 0, No Iterations 0
Saturation b:  Min(Sb) = 0.002 Max(Sb) = 0.83511
DICPCG:  Solving for p, Initial residual = 0.00069239, Final residual = 8.78399e-13, No Iterations 95
ExecutionTime = 1.0625 s  ClockTime = 2 s

Coats CFL Number mean: 0.000326321 max: 0.561734
deltaT = 21
Time = 458

diagonal:  Solving for Sb, Initial residual = 0, Final residual = 0, No Iterations 0
Saturation b:  Min(Sb) = 0.002 Max(Sb) = 0.836662
DICPCG:  Solving for p, Initial residual = 0.000745029, Final residual = 9.16201e-13, No Iterations 95
ExecutionTime = 1.07812 s  ClockTime = 2 s

Coats CFL Number mean: 0.000316087 max: 0.520368
deltaT = 21
Time = 479

diagonal:  Solving for Sb, Initial residual = 0, Final residual = 0, No Iterations 0
Saturation b:  Min(Sb) = 0.002 Max(Sb) = 0.838063
DICPCG:  Solving for p, Initial residual = 0.000793039, Final residual = 9.75239e-13, No Iterations 95
ExecutionTime = 1.09375 s  ClockTime = 2 s

Coats CFL Number mean: 0.0003123 max: 0.483047
deltaT = 21
Time = 500

diagonal:  Solving for Sb, Initial residual = 0, Final residual = 0, No Iterations 0
Saturation b:  Min(Sb) = 0.002 Max(Sb) = 0.839316
DICPCG:  Solving for p, Initial residual = 0.000822463, Final residual = 7.1022e-13, No Iterations 96
ExecutionTime = 1.14062 s  ClockTime = 2 s

Coats CFL Number mean: 0.000317229 max: 0.448856
deltaT = 22.7273
Time = 522.727

diagonal:  Solving for Sb, Initial residual = 0, Final residual = 0, No Iterations 0
Saturation b:  Min(Sb) = 0.002 Max(Sb) = 0.840519
DICPCG:  Solving for p, Initial residual = 0.000889443, Final residual = 7.95529e-13, No Iterations 96
ExecutionTime = 1.15625 s  ClockTime = 2 s

Coats CFL Number mean: 0.000358688 max: 0.460743
deltaT = 25.2525
Time = 547.98

diagonal:  Solving for Sb, Initial residual = 0, Final residual = 0, No Iterations 0
Saturation b:  Min(Sb) = 0.002 Max(Sb) = 0.841683
DICPCG:  Solving for p, Initial residual = 0.000951718, Final residual = 6.85656e-13, No Iterations 96
ExecutionTime = 1.17188 s  ClockTime = 2 s

Coats CFL Number mean: 0.000425295 max: 0.611932
deltaT = 25.2525
Time = 573.232

diagonal:  Solving for Sb, Initial residual = 0, Final residual = 0, No Iterations 0
Saturation b:  Min(Sb) = 0.002 Max(Sb) = 0.842677
DICPCG:  Solving for p, Initial residual = 0.000895747, Final residual = 5.71142e-13, No Iterations 96
ExecutionTime = 1.17188 s  ClockTime = 2 s

Coats CFL Number mean: 0.000453761 max: 0.661112
deltaT = 25.2525
Time = 598.485

diagonal:  Solving for Sb, Initial residual = 0, Final residual = 0, No Iterations 0
Saturation b:  Min(Sb) = 0.002 Max(Sb) = 0.843521
DICPCG:  Solving for p, Initial residual = 0.000840747, Final residual = 7.62874e-13, No Iterations 96
ExecutionTime = 1.1875 s  ClockTime = 2 s

Coats CFL Number mean: 0.000490252 max: 0.674756
deltaT = 25.2525
Time = 623.737

diagonal:  Solving for Sb, Initial residual = 0, Final residual = 0, No Iterations 0
Saturation b:  Min(Sb) = 0.002 Max(Sb) = 0.844231
DICPCG:  Solving for p, Initial residual = 0.000801908, Final residual = 8.08223e-13, No Iterations 96
ExecutionTime = 1.20312 s  ClockTime = 2 s

Coats CFL Number mean: 0.000539575 max: 0.674974
deltaT = 25.2525
Time = 648.99

diagonal:  Solving for Sb, Initial residual = 0, Final residual = 0, No Iterations 0
Saturation b:  Min(Sb) = 0.002 Max(Sb) = 0.844824
DICPCG:  Solving for p, Initial residual = 0.000780412, Final residual = 9.65112e-13, No Iterations 95
ExecutionTime = 1.21875 s  ClockTime = 2 s

Coats CFL Number mean: 0.000582044 max: 0.650742
deltaT = 25.2525
Time = 674.242

diagonal:  Solving for Sb, Initial residual = 0, Final residual = 0, No Iterations 0
Saturation b:  Min(Sb) = 0.002 Max(Sb) = 0.845322
DICPCG:  Solving for p, Initial residual = 0.000750927, Final residual = 9.02157e-13, No Iterations 97
ExecutionTime = 1.21875 s  ClockTime = 2 s

Coats CFL Number mean: 0.000605037 max: 0.648477
deltaT = 25.2525
Time = 699.495

diagonal:  Solving for Sb, Initial residual = 0, Final residual = 0, No Iterations 0
Saturation b:  Min(Sb) = 0.002 Max(Sb) = 0.845737
DICPCG:  Solving for p, Initial residual = 0.00074869, Final residual = 9.9642e-13, No Iterations 97
ExecutionTime = 1.23438 s  ClockTime = 2 s

Coats CFL Number mean: 0.000612368 max: 0.617282
deltaT = 25.2525
Time = 724.747

diagonal:  Solving for Sb, Initial residual = 0, Final residual = 0, No Iterations 0
Saturation b:  Min(Sb) = 0.002 Max(Sb) = 0.846079
DICPCG:  Solving for p, Initial residual = 0.000773775, Final residual = 9.55785e-13, No Iterations 97
ExecutionTime = 1.25 s  ClockTime = 2 s

Coats CFL Number mean: 0.000615449 max: 0.561971
deltaT = 25.2525
Time = 750

diagonal:  Solving for Sb, Initial residual = 0, Final residual = 0, No Iterations 0
Saturation b:  Min(Sb) = 0.002 Max(Sb) = 0.846357
DICPCG:  Solving for p, Initial residual = 0.000794892, Final residual = 8.35298e-13, No Iterations 97
ExecutionTime = 1.29688 s  ClockTime = 2 s

Coats CFL Number mean: 0.000616855 max: 0.615239
deltaT = 27.7778
Time = 777.778

diagonal:  Solving for Sb, Initial residual = 0, Final residual = 0, No Iterations 0
Saturation b:  Min(Sb) = 0.002 Max(Sb) = 0.846598
DICPCG:  Solving for p, Initial residual = 0.000889721, Final residual = 9.04337e-13, No Iterations 96
ExecutionTime = 1.29688 s  ClockTime = 2 s

Coats CFL Number mean: 0.000676665 max: 0.717231
deltaT = 27.7778
Time = 805.556

diagonal:  Solving for Sb, Initial residual = 0, Final residual = 0, No Iterations 0
Saturation b:  Min(Sb) = 0.002 Max(Sb) = 0.846776
DICPCG:  Solving for p, Initial residual = 0.000929056, Final residual = 5.9681e-13, No Iterations 96
ExecutionTime = 1.3125 s  ClockTime = 2 s

Coats CFL Number mean: 0.00067773 max: 0.701159
deltaT = 27.7778
Time = 833.333

diagonal:  Solving for Sb, Initial residual = 0, Final residual = 0, No Iterations 0
Saturation b:  Min(Sb) = 0.002 Max(Sb) = 0.847176
DICPCG:  Solving for p, Initial residual = 0.000956816, Final residual = 9.99465e-13, No Iterations 94
ExecutionTime = 1.32812 s  ClockTime = 2 s

Coats CFL Number mean: 0.000692796 max: 0.656129
deltaT = 27.7778
Time = 861.111

diagonal:  Solving for Sb, Initial residual = 0, Final residual = 0, No Iterations 0
Saturation b:  Min(Sb) = 0.002 Max(Sb) = 0.847997
DICPCG:  Solving for p, Initial residual = 0.000915019, Final residual = 7.6345e-13, No Iterations 96
ExecutionTime = 1.34375 s  ClockTime = 2 s

Coats CFL Number mean: 0.000741206 max: 0.63997
deltaT = 27.7778
Time = 888.889

diagonal:  Solving for Sb, Initial residual = 0, Final residual = 0, No Iterations 0
Saturation b:  Min(Sb) = 0.002 Max(Sb) = 0.848771
DICPCG:  Solving for p, Initial residual = 0.000784428, Final residual = 8.78061e-13, No Iterations 96
ExecutionTime = 1.34375 s  ClockTime = 2 s

Coats CFL Number mean: 0.000809553 max: 0.634018
deltaT = 27.7778
Time = 916.667

diagonal:  Solving for Sb, Initial residual = 0, Final residual = 0, No Iterations 0
Saturation b:  Min(Sb) = 0.002 Max(Sb) = 0.849502
DICPCG:  Solving for p, Initial residual = 0.000760255, Final residual = 8.34331e-13, No Iterations 95
ExecutionTime = 1.35938 s  ClockTime = 2 s

Coats CFL Number mean: 0.00087239 max: 0.638234
deltaT = 27.7778
Time = 944.444

diagonal:  Solving for Sb, Initial residual = 0, Final residual = 0, No Iterations 0
Saturation b:  Min(Sb) = 0.002 Max(Sb) = 0.850194
DICPCG:  Solving for p, Initial residual = 0.000715936, Final residual = 7.69809e-13, No Iterations 96
ExecutionTime = 1.375 s  ClockTime = 2 s

Coats CFL Number mean: 0.000901517 max: 0.673818
deltaT = 27.7778
Time = 972.222

diagonal:  Solving for Sb, Initial residual = 0, Final residual = 0, No Iterations 0
Saturation b:  Min(Sb) = 0.002 Max(Sb) = 0.85085
DICPCG:  Solving for p, Initial residual = 0.000731072, Final residual = 7.52912e-13, No Iterations 96
ExecutionTime = 1.375 s  ClockTime = 2 s

Coats CFL Number mean: 0.000895896 max: 0.702405
deltaT = 27.7778
Time = 1000

diagonal:  Solving for Sb, Initial residual = 0, Final residual = 0, No Iterations 0
Saturation b:  Min(Sb) = 0.002 Max(Sb) = 0.851472
DICPCG:  Solving for p, Initial residual = 0.000803934, Final residual = 6.49458e-13, No Iterations 96
ExecutionTime = 1.4375 s  ClockTime = 2 s

Coats CFL Number mean: 0.000876585 max: 0.694229
deltaT = 27.7778
Time = 1027.78

diagonal:  Solving for Sb, Initial residual = 0, Final residual = 0, No Iterations 0
Saturation b:  Min(Sb) = 0.002 Max(Sb) = 0.852063
DICPCG:  Solving for p, Initial residual = 0.00089496, Final residual = 9.41253e-13, No Iterations 95
ExecutionTime = 1.4375 s  ClockTime = 2 s

Coats CFL Number mean: 0.000862476 max: 0.659577
deltaT = 27.7778
Time = 1055.56

diagonal:  Solving for Sb, Initial residual = 0, Final residual = 0, No Iterations 0
Saturation b:  Min(Sb) = 0.002 Max(Sb) = 0.852626
DICPCG:  Solving for p, Initial residual = 0.000955314, Final residual = 8.47183e-13, No Iterations 95
ExecutionTime = 1.45312 s  ClockTime = 2 s

Coats CFL Number mean: 0.000863902 max: 0.616802
deltaT = 27.7778
Time = 1083.33

diagonal:  Solving for Sb, Initial residual = 0, Final residual = 0, No Iterations 0
Saturation b:  Min(Sb) = 0.002 Max(Sb) = 0.853161
DICPCG:  Solving for p, Initial residual = 0.000958532, Final residual = 8.75501e-13, No Iterations 95
ExecutionTime = 1.46875 s  ClockTime = 2 s

Coats CFL Number mean: 0.000884588 max: 0.574442
deltaT = 27.7778
Time = 1111.11

diagonal:  Solving for Sb, Initial residual = 0, Final residual = 0, No Iterations 0
Saturation b:  Min(Sb) = 0.002 Max(Sb) = 0.853672
DICPCG:  Solving for p, Initial residual = 0.000890398, Final residual = 7.91916e-13, No Iterations 94
ExecutionTime = 1.48438 s  ClockTime = 2 s

Coats CFL Number mean: 0.000930096 max: 0.557126
deltaT = 27.7778
Time = 1138.89

diagonal:  Solving for Sb, Initial residual = 0, Final residual = 0, No Iterations 0
Saturation b:  Min(Sb) = 0.002 Max(Sb) = 0.854159
DICPCG:  Solving for p, Initial residual = 0.00074588, Final residual = 7.1536e-13, No Iterations 96
ExecutionTime = 1.48438 s  ClockTime = 2 s

Coats CFL Number mean: 0.000992524 max: 0.637381
deltaT = 27.7778
Time = 1166.67

diagonal:  Solving for Sb, Initial residual = 0, Final residual = 0, No Iterations 0
Saturation b:  Min(Sb) = 0.002 Max(Sb) = 0.854624
DICPCG:  Solving for p, Initial residual = 0.000737241, Final residual = 8.65792e-13, No Iterations 95
ExecutionTime = 1.5 s  ClockTime = 2 s

Coats CFL Number mean: 0.00104799 max: 0.69431
deltaT = 27.7778
Time = 1194.44

diagonal:  Solving for Sb, Initial residual = 0, Final residual = 0, No Iterations 0
Saturation b:  Min(Sb) = 0.002 Max(Sb) = 0.855069
DICPCG:  Solving for p, Initial residual = 0.000742393, Final residual = 7.2277e-13, No Iterations 96
ExecutionTime = 1.51562 s  ClockTime = 2 s

Coats CFL Number mean: 0.00107801 max: 0.690729
deltaT = 27.7778
Time = 1222.22

diagonal:  Solving for Sb, Initial residual = 0, Final residual = 0, No Iterations 0
Saturation b:  Min(Sb) = 0.002 Max(Sb) = 0.855494
DICPCG:  Solving for p, Initial residual = 0.000774031, Final residual = 7.99409e-13, No Iterations 97
ExecutionTime = 1.51562 s  ClockTime = 2 s

Coats CFL Number mean: 0.00108103 max: 0.657478
deltaT = 27.7778
Time = 1250

diagonal:  Solving for Sb, Initial residual = 0, Final residual = 0, No Iterations 0
Saturation b:  Min(Sb) = 0.002 Max(Sb) = 0.855902
DICPCG:  Solving for p, Initial residual = 0.000832136, Final residual = 8.76337e-13, No Iterations 97
ExecutionTime = 1.5625 s  ClockTime = 2 s

Coats CFL Number mean: 0.00107362 max: 0.618843
deltaT = 27.7778
Time = 1277.78

diagonal:  Solving for Sb, Initial residual = 0, Final residual = 0, No Iterations 0
Saturation b:  Min(Sb) = 0.002 Max(Sb) = 0.856292
DICPCG:  Solving for p, Initial residual = 0.000875103, Final residual = 5.92546e-13, No Iterations 98
ExecutionTime = 1.5625 s  ClockTime = 2 s

Coats CFL Number mean: 0.00107118 max: 0.581974
deltaT = 27.7778
Time = 1305.56

diagonal:  Solving for Sb, Initial residual = 0, Final residual = 0, No Iterations 0
Saturation b:  Min(Sb) = 0.002 Max(Sb) = 0.856666
DICPCG:  Solving for p, Initial residual = 0.000878326, Final residual = 9.52057e-13, No Iterations 97
ExecutionTime = 1.57812 s  ClockTime = 2 s

Coats CFL Number mean: 0.00107954 max: 0.54914
deltaT = 27.7778
Time = 1333.33

diagonal:  Solving for Sb, Initial residual = 0, Final residual = 0, No Iterations 0
Saturation b:  Min(Sb) = 0.002 Max(Sb) = 0.857024
DICPCG:  Solving for p, Initial residual = 0.000849131, Final residual = 8.98542e-13, No Iterations 97
ExecutionTime = 1.59375 s  ClockTime = 2 s

Coats CFL Number mean: 0.00109629 max: 0.598792
deltaT = 27.7778
Time = 1361.11

diagonal:  Solving for Sb, Initial residual = 0, Final residual = 0, No Iterations 0
Saturation b:  Min(Sb) = 0.002 Max(Sb) = 0.857369
DICPCG:  Solving for p, Initial residual = 0.000795393, Final residual = 7.75169e-13, No Iterations 96
ExecutionTime = 1.59375 s  ClockTime = 2 s

Coats CFL Number mean: 0.00111802 max: 0.674576
deltaT = 27.7778
Time = 1388.89

diagonal:  Solving for Sb, Initial residual = 0, Final residual = 0, No Iterations 0
Saturation b:  Min(Sb) = 0.002 Max(Sb) = 0.857699
DICPCG:  Solving for p, Initial residual = 0.000740066, Final residual = 9.55492e-13, No Iterations 96
ExecutionTime = 1.60938 s  ClockTime = 2 s

Coats CFL Number mean: 0.00114984 max: 0.697335
deltaT = 27.7778
Time = 1416.67

diagonal:  Solving for Sb, Initial residual = 0, Final residual = 0, No Iterations 0
Saturation b:  Min(Sb) = 0.002 Max(Sb) = 0.858017
DICPCG:  Solving for p, Initial residual = 0.000828152, Final residual = 9.17745e-13, No Iterations 96
ExecutionTime = 1.625 s  ClockTime = 2 s

Coats CFL Number mean: 0.00118738 max: 0.672333
deltaT = 27.7778
Time = 1444.44

diagonal:  Solving for Sb, Initial residual = 0, Final residual = 0, No Iterations 0
Saturation b:  Min(Sb) = 0.002 Max(Sb) = 0.858322
DICPCG:  Solving for p, Initial residual = 0.000851989, Final residual = 7.96609e-13, No Iterations 96
ExecutionTime = 1.64062 s  ClockTime = 2 s

Coats CFL Number mean: 0.00122922 max: 0.627657
deltaT = 27.7778
Time = 1472.22

diagonal:  Solving for Sb, Initial residual = 0, Final residual = 0, No Iterations 0
Saturation b:  Min(Sb) = 0.002 Max(Sb) = 0.858616
DICPCG:  Solving for p, Initial residual = 0.000837853, Final residual = 7.92363e-13, No Iterations 97
ExecutionTime = 1.64062 s  ClockTime = 2 s

Coats CFL Number mean: 0.00126609 max: 0.611402
deltaT = 27.7778
Time = 1500

diagonal:  Solving for Sb, Initial residual = 0, Final residual = 0, No Iterations 0
Saturation b:  Min(Sb) = 0.002 Max(Sb) = 0.858898
DICPCG:  Solving for p, Initial residual = 0.000794751, Final residual = 6.08791e-13, No Iterations 98
ExecutionTime = 1.67188 s  ClockTime = 2 s

Coats CFL Number mean: 0.00128815 max: 0.634055
deltaT = 27.7778
Time = 1527.78

diagonal:  Solving for Sb, Initial residual = 0, Final residual = 0, No Iterations 0
Saturation b:  Min(Sb) = 0.002 Max(Sb) = 0.85917
DICPCG:  Solving for p, Initial residual = 0.000769471, Final residual = 6.55123e-13, No Iterations 98
ExecutionTime = 1.70312 s  ClockTime = 2 s

Coats CFL Number mean: 0.00129816 max: 0.608049
deltaT = 27.7778
Time = 1555.56

diagonal:  Solving for Sb, Initial residual = 0, Final residual = 0, No Iterations 0
Saturation b:  Min(Sb) = 0.002 Max(Sb) = 0.859432
DICPCG:  Solving for p, Initial residual = 0.000743878, Final residual = 6.18002e-13, No Iterations 98
ExecutionTime = 1.70312 s  ClockTime = 2 s

Coats CFL Number mean: 0.00129915 max: 0.645267
deltaT = 27.7778
Time = 1583.33

diagonal:  Solving for Sb, Initial residual = 0, Final residual = 0, No Iterations 0
Saturation b:  Min(Sb) = 0.002 Max(Sb) = 0.859684
DICPCG:  Solving for p, Initial residual = 0.000745608, Final residual = 9.41804e-13, No Iterations 97
ExecutionTime = 1.71875 s  ClockTime = 2 s

Coats CFL Number mean: 0.00129464 max: 0.681798
deltaT = 27.7778
Time = 1611.11

diagonal:  Solving for Sb, Initial residual = 0, Final residual = 0, No Iterations 0
Saturation b:  Min(Sb) = 0.002 Max(Sb) = 0.859927
DICPCG:  Solving for p, Initial residual = 0.000777341, Final residual = 8.51644e-13, No Iterations 97
ExecutionTime = 1.73438 s  ClockTime = 2 s

Coats CFL Number mean: 0.00129135 max: 0.675576
deltaT = 27.7778
Time = 1638.89

diagonal:  Solving for Sb, Initial residual = 0, Final residual = 0, No Iterations 0
Saturation b:  Min(Sb) = 0.002 Max(Sb) = 0.860161
DICPCG:  Solving for p, Initial residual = 0.000823176, Final residual = 7.85347e-13, No Iterations 97
ExecutionTime = 1.75 s  ClockTime = 2 s

Coats CFL Number mean: 0.0013073 max: 0.648904
deltaT = 27.7778
Time = 1666.67

diagonal:  Solving for Sb, Initial residual = 0, Final residual = 0, No Iterations 0
Saturation b:  Min(Sb) = 0.002 Max(Sb) = 0.860387
DICPCG:  Solving for p, Initial residual = 0.00088259, Final residual = 8.86594e-13, No Iterations 97
ExecutionTime = 1.75 s  ClockTime = 2 s

Coats CFL Number mean: 0.00134034 max: 0.608582
deltaT = 27.7778
Time = 1694.44

diagonal:  Solving for Sb, Initial residual = 0, Final residual = 0, No Iterations 0
Saturation b:  Min(Sb) = 0.002 Max(Sb) = 0.860604
DICPCG:  Solving for p, Initial residual = 0.00088441, Final residual = 6.68653e-13, No Iterations 98
ExecutionTime = 1.76562 s  ClockTime = 2 s

Coats CFL Number mean: 0.00139121 max: 0.566823
deltaT = 27.7778
Time = 1722.22

diagonal:  Solving for Sb, Initial residual = 0, Final residual = 0, No Iterations 0
Saturation b:  Min(Sb) = 0.002 Max(Sb) = 0.860814
DICPCG:  Solving for p, Initial residual = 0.000822419, Final residual = 8.66013e-13, No Iterations 97
ExecutionTime = 1.78125 s  ClockTime = 2 s

Coats CFL Number mean: 0.00144812 max: 0.5371
deltaT = 27.7778
Time = 1750

diagonal:  Solving for Sb, Initial residual = 0, Final residual = 0, No Iterations 0
Saturation b:  Min(Sb) = 0.002 Max(Sb) = 0.861016
DICPCG:  Solving for p, Initial residual = 0.000732261, Final residual = 7.34863e-13, No Iterations 98
ExecutionTime = 1.82812 s  ClockTime = 2 s

Coats CFL Number mean: 0.00149149 max: 0.612826
deltaT = 27.7778
Time = 1777.78

diagonal:  Solving for Sb, Initial residual = 0, Final residual = 0, No Iterations 0
Saturation b:  Min(Sb) = 0.002 Max(Sb) = 0.861212
DICPCG:  Solving for p, Initial residual = 0.000666252, Final residual = 8.06113e-13, No Iterations 98
ExecutionTime = 1.82812 s  ClockTime = 2 s

Coats CFL Number mean: 0.00150655 max: 0.667112
deltaT = 27.7778
Time = 1805.56

diagonal:  Solving for Sb, Initial residual = 0, Final residual = 0, No Iterations 0
Saturation b:  Min(Sb) = 0.002 Max(Sb) = 0.8614
DICPCG:  Solving for p, Initial residual = 0.000684005, Final residual = 7.89786e-13, No Iterations 98
ExecutionTime = 1.85938 s  ClockTime = 2 s

Coats CFL Number mean: 0.00149879 max: 0.672666
deltaT = 27.7778
Time = 1833.33

diagonal:  Solving for Sb, Initial residual = 0, Final residual = 0, No Iterations 0
Saturation b:  Min(Sb) = 0.002 Max(Sb) = 0.861582
DICPCG:  Solving for p, Initial residual = 0.000751555, Final residual = 7.75214e-13, No Iterations 98
ExecutionTime = 1.85938 s  ClockTime = 2 s

Coats CFL Number mean: 0.00148578 max: 0.649469
deltaT = 27.7778
Time = 1861.11

diagonal:  Solving for Sb, Initial residual = 0, Final residual = 0, No Iterations 0
Saturation b:  Min(Sb) = 0.002 Max(Sb) = 0.861757
DICPCG:  Solving for p, Initial residual = 0.000823231, Final residual = 7.67466e-13, No Iterations 98
ExecutionTime = 1.875 s  ClockTime = 2 s

Coats CFL Number mean: 0.00148066 max: 0.616578
deltaT = 27.7778
Time = 1888.89

diagonal:  Solving for Sb, Initial residual = 0, Final residual = 0, No Iterations 0
Saturation b:  Min(Sb) = 0.002 Max(Sb) = 0.861926
DICPCG:  Solving for p, Initial residual = 0.000832101, Final residual = 7.41401e-13, No Iterations 98
ExecutionTime = 1.89062 s  ClockTime = 2 s

Coats CFL Number mean: 0.00149178 max: 0.583833
deltaT = 27.7778
Time = 1916.67

diagonal:  Solving for Sb, Initial residual = 0, Final residual = 0, No Iterations 0
Saturation b:  Min(Sb) = 0.002 Max(Sb) = 0.862089
DICPCG:  Solving for p, Initial residual = 0.000835649, Final residual = 6.59962e-13, No Iterations 98
ExecutionTime = 1.90625 s  ClockTime = 2 s

Coats CFL Number mean: 0.00152359 max: 0.555567
deltaT = 27.7778
Time = 1944.44

diagonal:  Solving for Sb, Initial residual = 0, Final residual = 0, No Iterations 0
Saturation b:  Min(Sb) = 0.002 Max(Sb) = 0.862247
DICPCG:  Solving for p, Initial residual = 0.000816563, Final residual = 6.59261e-13, No Iterations 98
ExecutionTime = 1.90625 s  ClockTime = 2 s

Coats CFL Number mean: 0.0015661 max: 0.570202
deltaT = 27.7778
Time = 1972.22

diagonal:  Solving for Sb, Initial residual = 0, Final residual = 0, No Iterations 0
Saturation b:  Min(Sb) = 0.002 Max(Sb) = 0.862398
DICPCG:  Solving for p, Initial residual = 0.000771255, Final residual = 6.85319e-13, No Iterations 98
ExecutionTime = 1.92188 s  ClockTime = 3 s

Coats CFL Number mean: 0.00161326 max: 0.646962
deltaT = 27.7778
Time = 2000

diagonal:  Solving for Sb, Initial residual = 0, Final residual = 0, No Iterations 0
Saturation b:  Min(Sb) = 0.002 Max(Sb) = 0.862545
DICPCG:  Solving for p, Initial residual = 0.000713993, Final residual = 6.37627e-13, No Iterations 98
ExecutionTime = 1.95312 s  ClockTime = 3 s

Coats CFL Number mean: 0.00165339 max: 0.673033
deltaT = 27.7778
Time = 2027.78

diagonal:  Solving for Sb, Initial residual = 0, Final residual = 0, No Iterations 0
Saturation b:  Min(Sb) = 0.002 Max(Sb) = 0.862687
DICPCG:  Solving for p, Initial residual = 0.00072055, Final residual = 7.52602e-13, No Iterations 98
ExecutionTime = 1.95312 s  ClockTime = 3 s

Coats CFL Number mean: 0.00168 max: 0.659113
deltaT = 27.7778
Time = 2055.56

diagonal:  Solving for Sb, Initial residual = 0, Final residual = 0, No Iterations 0
Saturation b:  Min(Sb) = 0.002 Max(Sb) = 0.862823
DICPCG:  Solving for p, Initial residual = 0.000728111, Final residual = 8.52101e-13, No Iterations 98
ExecutionTime = 1.96875 s  ClockTime = 3 s

Coats CFL Number mean: 0.0016901 max: 0.626548
deltaT = 27.7778
Time = 2083.33

diagonal:  Solving for Sb, Initial residual = 0, Final residual = 0, No Iterations 0
Saturation b:  Min(Sb) = 0.002 Max(Sb) = 0.862955
DICPCG:  Solving for p, Initial residual = 0.00075883, Final residual = 8.92353e-13, No Iterations 98
ExecutionTime = 1.98438 s  ClockTime = 3 s

Coats CFL Number mean: 0.00169208 max: 0.601619
deltaT = 27.7778
Time = 2111.11

diagonal:  Solving for Sb, Initial residual = 0, Final residual = 0, No Iterations 0
Saturation b:  Min(Sb) = 0.002 Max(Sb) = 0.863082
DICPCG:  Solving for p, Initial residual = 0.000781032, Final residual = 8.78994e-13, No Iterations 98
ExecutionTime = 2 s  ClockTime = 3 s

Coats CFL Number mean: 0.00169598 max: 0.565451
deltaT = 27.7778
Time = 2138.89

diagonal:  Solving for Sb, Initial residual = 0, Final residual = 0, No Iterations 0
Saturation b:  Min(Sb) = 0.002 Max(Sb) = 0.863205
DICPCG:  Solving for p, Initial residual = 0.000768193, Final residual = 8.13827e-13, No Iterations 98
ExecutionTime = 2.01562 s  ClockTime = 3 s

Coats CFL Number mean: 0.00170591 max: 0.530883
deltaT = 27.7778
Time = 2166.67

diagonal:  Solving for Sb, Initial residual = 0, Final residual = 0, No Iterations 0
Saturation b:  Min(Sb) = 0.002 Max(Sb) = 0.863323
DICPCG:  Solving for p, Initial residual = 0.000736438, Final residual = 7.93799e-13, No Iterations 95
ExecutionTime = 2.03125 s  ClockTime = 3 s

Coats CFL Number mean: 0.00172369 max: 0.613278
deltaT = 27.7778
Time = 2194.44

diagonal:  Solving for Sb, Initial residual = 0, Final residual = 0, No Iterations 0
Saturation b:  Min(Sb) = 0.002 Max(Sb) = 0.863437
DICPCG:  Solving for p, Initial residual = 0.000728093, Final residual = 8.57586e-13, No Iterations 96
ExecutionTime = 2.04688 s  ClockTime = 3 s

Coats CFL Number mean: 0.00174217 max: 0.662624
deltaT = 27.7778
Time = 2222.22

diagonal:  Solving for Sb, Initial residual = 0, Final residual = 0, No Iterations 0
Saturation b:  Min(Sb) = 0.002 Max(Sb) = 0.863547
DICPCG:  Solving for p, Initial residual = 0.000754432, Final residual = 9.96063e-13, No Iterations 97
ExecutionTime = 2.04688 s  ClockTime = 3 s

Coats CFL Number mean: 0.00176456 max: 0.66706
deltaT = 27.7778
Time = 2250

diagonal:  Solving for Sb, Initial residual = 0, Final residual = 0, No Iterations 0
Saturation b:  Min(Sb) = 0.002 Max(Sb) = 0.863653
DICPCG:  Solving for p, Initial residual = 0.000795056, Final residual = 6.16714e-13, No Iterations 98
ExecutionTime = 2.07812 s  ClockTime = 3 s

Coats CFL Number mean: 0.0017961 max: 0.643548
deltaT = 27.7778
Time = 2277.78

diagonal:  Solving for Sb, Initial residual = 0, Final residual = 0, No Iterations 0
Saturation b:  Min(Sb) = 0.002 Max(Sb) = 0.863755
DICPCG:  Solving for p, Initial residual = 0.000804178, Final residual = 9.75536e-13, No Iterations 97
ExecutionTime = 2.09375 s  ClockTime = 3 s

Coats CFL Number mean: 0.00183632 max: 0.608847
deltaT = 27.7778
Time = 2305.56

diagonal:  Solving for Sb, Initial residual = 0, Final residual = 0, No Iterations 0
Saturation b:  Min(Sb) = 0.002 Max(Sb) = 0.863854
DICPCG:  Solving for p, Initial residual = 0.000784465, Final residual = 6.53201e-13, No Iterations 97
ExecutionTime = 2.09375 s  ClockTime = 3 s

Coats CFL Number mean: 0.00187747 max: 0.572847
deltaT = 27.7778
Time = 2333.33

diagonal:  Solving for Sb, Initial residual = 0, Final residual = 0, No Iterations 0
Saturation b:  Min(Sb) = 0.002 Max(Sb) = 0.863949
DICPCG:  Solving for p, Initial residual = 0.000727254, Final residual = 7.72601e-13, No Iterations 98
ExecutionTime = 2.10938 s  ClockTime = 3 s

Coats CFL Number mean: 0.00190711 max: 0.605323
deltaT = 27.7778
Time = 2361.11

diagonal:  Solving for Sb, Initial residual = 0, Final residual = 0, No Iterations 0
Saturation b:  Min(Sb) = 0.002 Max(Sb) = 0.86404
DICPCG:  Solving for p, Initial residual = 0.000681701, Final residual = 7.20065e-13, No Iterations 98
ExecutionTime = 2.10938 s  ClockTime = 3 s

Coats CFL Number mean: 0.00192117 max: 0.601517
deltaT = 27.7778
Time = 2388.89

diagonal:  Solving for Sb, Initial residual = 0, Final residual = 0, No Iterations 0
Saturation b:  Min(Sb) = 0.002 Max(Sb) = 0.864128
DICPCG:  Solving for p, Initial residual = 0.000673331, Final residual = 6.84298e-13, No Iterations 98
ExecutionTime = 2.14062 s  ClockTime = 3 s

Coats CFL Number mean: 0.0019236 max: 0.641484
deltaT = 27.7778
Time = 2416.67

diagonal:  Solving for Sb, Initial residual = 0, Final residual = 0, No Iterations 0
Saturation b:  Min(Sb) = 0.002 Max(Sb) = 0.864213
DICPCG:  Solving for p, Initial residual = 0.00067497, Final residual = 5.90492e-13, No Iterations 98
ExecutionTime = 2.14062 s  ClockTime = 3 s

Coats CFL Number mean: 0.00192048 max: 0.665792
deltaT = 27.7778
Time = 2444.44

diagonal:  Solving for Sb, Initial residual = 0, Final residual = 0, No Iterations 0
Saturation b:  Min(Sb) = 0.002 Max(Sb) = 0.864294
DICPCG:  Solving for p, Initial residual = 0.00072941, Final residual = 9.22388e-13, No Iterations 97
ExecutionTime = 2.15625 s  ClockTime = 3 s

Coats CFL Number mean: 0.00191921 max: 0.654218
deltaT = 27.7778
Time = 2472.22

diagonal:  Solving for Sb, Initial residual = 0, Final residual = 0, No Iterations 0
Saturation b:  Min(Sb) = 0.002 Max(Sb) = 0.864373
DICPCG:  Solving for p, Initial residual = 0.000786157, Final residual = 6.74834e-13, No Iterations 95
ExecutionTime = 2.15625 s  ClockTime = 3 s

Coats CFL Number mean: 0.0019297 max: 0.625349
deltaT = 27.7778
Time = 2500

diagonal:  Solving for Sb, Initial residual = 0, Final residual = 0, No Iterations 0
Saturation b:  Min(Sb) = 0.002 Max(Sb) = 0.864448
DICPCG:  Solving for p, Initial residual = 0.000824227, Final residual = 8.61539e-13, No Iterations 97
ExecutionTime = 2.1875 s  ClockTime = 3 s

Coats CFL Number mean: 0.00195707 max: 0.591718
deltaT = 31.25
Time = 2531.25

diagonal:  Solving for Sb, Initial residual = 0, Final residual = 0, No Iterations 0
Saturation b:  Min(Sb) = 0.002 Max(Sb) = 0.864527
DICPCG:  Solving for p, Initial residual = 0.000909491, Final residual = 6.57573e-13, No Iterations 98
ExecutionTime = 2.20312 s  ClockTime = 3 s

Coats CFL Number mean: 0.00225851 max: 0.623776
deltaT = 31.25
Time = 2562.5

diagonal:  Solving for Sb, Initial residual = 0, Final residual = 0, No Iterations 0
Saturation b:  Min(Sb) = 0.002 Max(Sb) = 0.8646
DICPCG:  Solving for p, Initial residual = 0.00083969, Final residual = 7.10374e-13, No Iterations 98
ExecutionTime = 2.21875 s  ClockTime = 3 s

Coats CFL Number mean: 0.00232516 max: 0.613126
deltaT = 31.25
Time = 2593.75

diagonal:  Solving for Sb, Initial residual = 0, Final residual = 0, No Iterations 0
Saturation b:  Min(Sb) = 0.002 Max(Sb) = 0.86467
DICPCG:  Solving for p, Initial residual = 0.000751529, Final residual = 8.26196e-13, No Iterations 98
ExecutionTime = 2.21875 s  ClockTime = 3 s

Coats CFL Number mean: 0.002377 max: 0.71421
deltaT = 31.25
Time = 2625

diagonal:  Solving for Sb, Initial residual = 0, Final residual = 0, No Iterations 0
Saturation b:  Min(Sb) = 0.002 Max(Sb) = 0.864737
DICPCG:  Solving for p, Initial residual = 0.000688308, Final residual = 6.87241e-13, No Iterations 99
ExecutionTime = 2.23438 s  ClockTime = 3 s

Coats CFL Number mean: 0.00239153 max: 0.746863
deltaT = 31.25
Time = 2656.25

diagonal:  Solving for Sb, Initial residual = 0, Final residual = 0, No Iterations 0
Saturation b:  Min(Sb) = 0.002 Max(Sb) = 0.8648
DICPCG:  Solving for p, Initial residual = 0.000754823, Final residual = 6.19863e-13, No Iterations 99
ExecutionTime = 2.23438 s  ClockTime = 3 s

Coats CFL Number mean: 0.002383 max: 0.727679
deltaT = 31.25
Time = 2687.5

diagonal:  Solving for Sb, Initial residual = 0, Final residual = 0, No Iterations 0
Saturation b:  Min(Sb) = 0.002 Max(Sb) = 0.86486
DICPCG:  Solving for p, Initial residual = 0.000829831, Final residual = 9.83473e-13, No Iterations 98
ExecutionTime = 2.25 s  ClockTime = 3 s

Coats CFL Number mean: 0.0023749 max: 0.687452
deltaT = 31.25
Time = 2718.75

diagonal:  Solving for Sb, Initial residual = 0, Final residual = 0, No Iterations 0
Saturation b:  Min(Sb) = 0.002 Max(Sb) = 0.864917
DICPCG:  Solving for p, Initial residual = 0.000880118, Final residual = 9.71052e-13, No Iterations 98
ExecutionTime = 2.26562 s  ClockTime = 3 s

Coats CFL Number mean: 0.0023833 max: 0.64482
deltaT = 31.25
Time = 2750

diagonal:  Solving for Sb, Initial residual = 0, Final residual = 0, No Iterations 0
Saturation b:  Min(Sb) = 0.002 Max(Sb) = 0.864971
DICPCG:  Solving for p, Initial residual = 0.000871828, Final residual = 8.7874e-13, No Iterations 98
ExecutionTime = 2.3125 s  ClockTime = 3 s

Coats CFL Number mean: 0.00241217 max: 0.606762
deltaT = 31.25
Time = 2781.25

diagonal:  Solving for Sb, Initial residual = 0, Final residual = 0, No Iterations 0
Saturation b:  Min(Sb) = 0.002 Max(Sb) = 0.865023
DICPCG:  Solving for p, Initial residual = 0.000836304, Final residual = 8.52186e-13, No Iterations 98
ExecutionTime = 2.3125 s  ClockTime = 3 s

Coats CFL Number mean: 0.00245563 max: 0.65042
deltaT = 31.25
Time = 2812.5

diagonal:  Solving for Sb, Initial residual = 0, Final residual = 0, No Iterations 0
Saturation b:  Min(Sb) = 0.002 Max(Sb) = 0.865071
DICPCG:  Solving for p, Initial residual = 0.000800278, Final residual = 9.69816e-13, No Iterations 98
ExecutionTime = 2.32812 s  ClockTime = 3 s

Coats CFL Number mean: 0.00250487 max: 0.730488
deltaT = 31.25
Time = 2843.75

diagonal:  Solving for Sb, Initial residual = 0, Final residual = 0, No Iterations 0
Saturation b:  Min(Sb) = 0.002 Max(Sb) = 0.865117
DICPCG:  Solving for p, Initial residual = 0.000775082, Final residual = 8.4175e-13, No Iterations 98
ExecutionTime = 2.32812 s  ClockTime = 3 s

Coats CFL Number mean: 0.00254982 max: 0.743789
deltaT = 31.25
Time = 2875

diagonal:  Solving for Sb, Initial residual = 0, Final residual = 0, No Iterations 0
Saturation b:  Min(Sb) = 0.002 Max(Sb) = 0.865161
DICPCG:  Solving for p, Initial residual = 0.000786996, Final residual = 6.93979e-13, No Iterations 98
ExecutionTime = 2.34375 s  ClockTime = 3 s

Coats CFL Number mean: 0.00258644 max: 0.71563
deltaT = 31.25
Time = 2906.25

diagonal:  Solving for Sb, Initial residual = 0, Final residual = 0, No Iterations 0
Saturation b:  Min(Sb) = 0.002 Max(Sb) = 0.865201
DICPCG:  Solving for p, Initial residual = 0.000790769, Final residual = 8.07508e-13, No Iterations 99
ExecutionTime = 2.34375 s  ClockTime = 3 s

Coats CFL Number mean: 0.00260865 max: 0.673578
deltaT = 31.25
Time = 2937.5

diagonal:  Solving for Sb, Initial residual = 0, Final residual = 0, No Iterations 0
Saturation b:  Min(Sb) = 0.002 Max(Sb) = 0.86524
DICPCG:  Solving for p, Initial residual = 0.000817155, Final residual = 6.17009e-13, No Iterations 100
ExecutionTime = 2.35938 s  ClockTime = 3 s

Coats CFL Number mean: 0.00261977 max: 0.660746
deltaT = 31.25
Time = 2968.75

diagonal:  Solving for Sb, Initial residual = 0, Final residual = 0, No Iterations 0
Saturation b:  Min(Sb) = 0.002 Max(Sb) = 0.865276
DICPCG:  Solving for p, Initial residual = 0.000820162, Final residual = 9.45582e-13, No Iterations 99
ExecutionTime = 2.375 s  ClockTime = 3 s

Coats CFL Number mean: 0.00263131 max: 0.61787
deltaT = 31.25
Time = 3000

diagonal:  Solving for Sb, Initial residual = 0, Final residual = 0, No Iterations 0
Saturation b:  Min(Sb) = 0.002 Max(Sb) = 0.865309
DICPCG:  Solving for p, Initial residual = 0.000783709, Final residual = 7.56684e-13, No Iterations 99
ExecutionTime = 2.40625 s  ClockTime = 3 s

Coats CFL Number mean: 0.00264626 max: 0.679681
deltaT = 31.25
Time = 3031.25

diagonal:  Solving for Sb, Initial residual = 0, Final residual = 0, No Iterations 0
Saturation b:  Min(Sb) = 0.002 Max(Sb) = 0.86534
DICPCG:  Solving for p, Initial residual = 0.000754259, Final residual = 8.06006e-13, No Iterations 98
ExecutionTime = 2.40625 s  ClockTime = 3 s

Coats CFL Number mean: 0.00266014 max: 0.738647
deltaT = 31.25
Time = 3062.5

diagonal:  Solving for Sb, Initial residual = 0, Final residual = 0, No Iterations 0
Saturation b:  Min(Sb) = 0.002 Max(Sb) = 0.86537
DICPCG:  Solving for p, Initial residual = 0.000798859, Final residual = 9.17952e-13, No Iterations 98
ExecutionTime = 2.42188 s  ClockTime = 3 s

Coats CFL Number mean: 0.00267843 max: 0.736628
deltaT = 31.25
Time = 3093.75

diagonal:  Solving for Sb, Initial residual = 0, Final residual = 0, No Iterations 0
Saturation b:  Min(Sb) = 0.002 Max(Sb) = 0.865396
DICPCG:  Solving for p, Initial residual = 0.000856018, Final residual = 6.31706e-13, No Iterations 99
ExecutionTime = 2.4375 s  ClockTime = 3 s

Coats CFL Number mean: 0.00271239 max: 0.702995
deltaT = 31.25
Time = 3125

diagonal:  Solving for Sb, Initial residual = 0, Final residual = 0, No Iterations 0
Saturation b:  Min(Sb) = 0.002 Max(Sb) = 0.865421
DICPCG:  Solving for p, Initial residual = 0.000874478, Final residual = 6.50791e-13, No Iterations 99
ExecutionTime = 2.4375 s  ClockTime = 3 s

Coats CFL Number mean: 0.00276445 max: 0.661209
deltaT = 31.25
Time = 3156.25

diagonal:  Solving for Sb, Initial residual = 0, Final residual = 0, No Iterations 0
Saturation b:  Min(Sb) = 0.002 Max(Sb) = 0.865444
DICPCG:  Solving for p, Initial residual = 0.000834241, Final residual = 8.17681e-13, No Iterations 99
ExecutionTime = 2.45312 s  ClockTime = 3 s

Coats CFL Number mean: 0.00282407 max: 0.621518
deltaT = 31.25
Time = 3187.5

diagonal:  Solving for Sb, Initial residual = 0, Final residual = 0, No Iterations 0
Saturation b:  Min(Sb) = 0.002 Max(Sb) = 0.865465
DICPCG:  Solving for p, Initial residual = 0.00075457, Final residual = 9.42212e-13, No Iterations 97
ExecutionTime = 2.45312 s  ClockTime = 3 s

Coats CFL Number mean: 0.00286815 max: 0.665213
deltaT = 31.25
Time = 3218.75

diagonal:  Solving for Sb, Initial residual = 0, Final residual = 0, No Iterations 0
Saturation b:  Min(Sb) = 0.002 Max(Sb) = 0.865483
DICPCG:  Solving for p, Initial residual = 0.000713946, Final residual = 9.0025e-13, No Iterations 99
ExecutionTime = 2.46875 s  ClockTime = 3 s

Coats CFL Number mean: 0.00288409 max: 0.702093
deltaT = 31.25
Time = 3250

diagonal:  Solving for Sb, Initial residual = 0, Final residual = 0, No Iterations 0
Saturation b:  Min(Sb) = 0.002 Max(Sb) = 0.8655
DICPCG:  Solving for p, Initial residual = 0.000708148, Final residual = 8.7509e-13, No Iterations 99
ExecutionTime = 2.51562 s  ClockTime = 3 s

Coats CFL Number mean: 0.00287876 max: 0.742049
deltaT = 31.25
Time = 3281.25

diagonal:  Solving for Sb, Initial residual = 0, Final residual = 0, No Iterations 0
Saturation b:  Min(Sb) = 0.002 Max(Sb) = 0.865515
DICPCG:  Solving for p, Initial residual = 0.000774165, Final residual = 9.77807e-13, No Iterations 98
ExecutionTime = 2.51562 s  ClockTime = 3 s

Coats CFL Number mean: 0.00287001 max: 0.728316
deltaT = 31.25
Time = 3312.5

diagonal:  Solving for Sb, Initial residual = 0, Final residual = 0, No Iterations 0
Saturation b:  Min(Sb) = 0.002 Max(Sb) = 0.865528
DICPCG:  Solving for p, Initial residual = 0.000831262, Final residual = 7.11047e-13, No Iterations 97
ExecutionTime = 2.53125 s  ClockTime = 3 s

Coats CFL Number mean: 0.002875 max: 0.690796
deltaT = 31.25
Time = 3343.75

diagonal:  Solving for Sb, Initial residual = 0, Final residual = 0, No Iterations 0
Saturation b:  Min(Sb) = 0.002 Max(Sb) = 0.86554
DICPCG:  Solving for p, Initial residual = 0.000875943, Final residual = 8.07489e-13, No Iterations 98
ExecutionTime = 2.53125 s  ClockTime = 3 s

Coats CFL Number mean: 0.00290292 max: 0.649148
deltaT = 31.25
Time = 3375

diagonal:  Solving for Sb, Initial residual = 0, Final residual = 0, No Iterations 0
Saturation b:  Min(Sb) = 0.002 Max(Sb) = 0.865549
DICPCG:  Solving for p, Initial residual = 0.000877318, Final residual = 6.66128e-13, No Iterations 99
ExecutionTime = 2.54688 s  ClockTime = 3 s

Coats CFL Number mean: 0.00295433 max: 0.611195
deltaT = 31.25
Time = 3406.25

diagonal:  Solving for Sb, Initial residual = 0, Final residual = 0, No Iterations 0
Saturation b:  Min(Sb) = 0.002 Max(Sb) = 0.865557
DICPCG:  Solving for p, Initial residual = 0.000815979, Final residual = 7.505e-13, No Iterations 99
ExecutionTime = 2.5625 s  ClockTime = 3 s

Coats CFL Number mean: 0.00301843 max: 0.629516
deltaT = 31.25
Time = 3437.5

diagonal:  Solving for Sb, Initial residual = 0, Final residual = 0, No Iterations 0
Saturation b:  Min(Sb) = 0.002 Max(Sb) = 0.865564
DICPCG:  Solving for p, Initial residual = 0.000725651, Final residual = 5.86203e-13, No Iterations 99
ExecutionTime = 2.5625 s  ClockTime = 3 s

Coats CFL Number mean: 0.00307605 max: 0.718576
deltaT = 31.25
Time = 3468.75

diagonal:  Solving for Sb, Initial residual = 0, Final residual = 0, No Iterations 0
Saturation b:  Min(Sb) = 0.002 Max(Sb) = 0.865568
DICPCG:  Solving for p, Initial residual = 0.000690569, Final residual = 9.83962e-13, No Iterations 99
ExecutionTime = 2.57812 s  ClockTime = 3 s

Coats CFL Number mean: 0.00310476 max: 0.741407
deltaT = 31.25
Time = 3500

diagonal:  Solving for Sb, Initial residual = 0, Final residual = 0, No Iterations 0
Saturation b:  Min(Sb) = 0.002 Max(Sb) = 0.865571
DICPCG:  Solving for p, Initial residual = 0.000728538, Final residual = 9.79615e-13, No Iterations 99
ExecutionTime = 2.59375 s  ClockTime = 3 s

Coats CFL Number mean: 0.00310584 max: 0.718992
deltaT = 31.25
Time = 3531.25

diagonal:  Solving for Sb, Initial residual = 0, Final residual = 0, No Iterations 0
Saturation b:  Min(Sb) = 0.002 Max(Sb) = 0.865573
DICPCG:  Solving for p, Initial residual = 0.000807705, Final residual = 7.83894e-13, No Iterations 99
ExecutionTime = 2.60938 s  ClockTime = 3 s

Coats CFL Number mean: 0.00310136 max: 0.679438
deltaT = 31.25
Time = 3562.5

diagonal:  Solving for Sb, Initial residual = 0, Final residual = 0, No Iterations 0
Saturation b:  Min(Sb) = 0.002 Max(Sb) = 0.865573
DICPCG:  Solving for p, Initial residual = 0.000931985, Final residual = 6.25596e-13, No Iterations 99
ExecutionTime = 2.625 s  ClockTime = 3 s

Coats CFL Number mean: 0.00310778 max: 0.638426
deltaT = 31.25
Time = 3593.75

diagonal:  Solving for Sb, Initial residual = 0, Final residual = 0, No Iterations 0
Saturation b:  Min(Sb) = 0.002 Max(Sb) = 0.865571
DICPCG:  Solving for p, Initial residual = 0.000836842, Final residual = 6.3332e-13, No Iterations 99
ExecutionTime = 2.625 s  ClockTime = 3 s

Coats CFL Number mean: 0.00312928 max: 0.601253
deltaT = 31.25
Time = 3625

diagonal:  Solving for Sb, Initial residual = 0, Final residual = 0, No Iterations 0
Saturation b:  Min(Sb) = 0.002 Max(Sb) = 0.865569
DICPCG:  Solving for p, Initial residual = 0.000799301, Final residual = 9.51877e-13, No Iterations 98
ExecutionTime = 2.64062 s  ClockTime = 3 s

Coats CFL Number mean: 0.00316397 max: 0.658322
deltaT = 31.25
Time = 3656.25

diagonal:  Solving for Sb, Initial residual = 0, Final residual = 0, No Iterations 0
Saturation b:  Min(Sb) = 0.002 Max(Sb) = 0.865564
DICPCG:  Solving for p, Initial residual = 0.000768374, Final residual = 6.84715e-13, No Iterations 96
ExecutionTime = 2.64062 s  ClockTime = 3 s

Coats CFL Number mean: 0.00320236 max: 0.729255
deltaT = 31.25
Time = 3687.5

diagonal:  Solving for Sb, Initial residual = 0, Final residual = 0, No Iterations 0
Saturation b:  Min(Sb) = 0.002 Max(Sb) = 0.865559
DICPCG:  Solving for p, Initial residual = 0.000775017, Final residual = 7.99714e-13, No Iterations 96
ExecutionTime = 2.65625 s  ClockTime = 3 s

Coats CFL Number mean: 0.00324283 max: 0.737328
deltaT = 31.25
Time = 3718.75

diagonal:  Solving for Sb, Initial residual = 0, Final residual = 0, No Iterations 0
Saturation b:  Min(Sb) = 0.002 Max(Sb) = 0.865552
DICPCG:  Solving for p, Initial residual = 0.00078148, Final residual = 9.30694e-13, No Iterations 98
ExecutionTime = 2.67188 s  ClockTime = 3 s

Coats CFL Number mean: 0.00328678 max: 0.708681
deltaT = 31.25
Time = 3750

diagonal:  Solving for Sb, Initial residual = 0, Final residual = 0, No Iterations 0
Saturation b:  Min(Sb) = 0.002 Max(Sb) = 0.865543
DICPCG:  Solving for p, Initial residual = 0.000793186, Final residual = 8.34701e-13, No Iterations 100
ExecutionTime = 2.67188 s  ClockTime = 3 s

Coats CFL Number mean: 0.00332568 max: 0.668521
deltaT = 31.25
Time = 3781.25

diagonal:  Solving for Sb, Initial residual = 0, Final residual = 0, No Iterations 0
Saturation b:  Min(Sb) = 0.002 Max(Sb) = 0.865534
DICPCG:  Solving for p, Initial residual = 0.000778675, Final residual = 9.135e-13, No Iterations 99
ExecutionTime = 2.6875 s  ClockTime = 3 s

Coats CFL Number mean: 0.00335113 max: 0.666496
deltaT = 31.25
Time = 3812.5

diagonal:  Solving for Sb, Initial residual = 0, Final residual = 0, No Iterations 0
Saturation b:  Min(Sb) = 0.002 Max(Sb) = 0.865523
DICPCG:  Solving for p, Initial residual = 0.000964913, Final residual = 7.80236e-13, No Iterations 99
ExecutionTime = 2.70312 s  ClockTime = 3 s

Coats CFL Number mean: 0.00336731 max: 0.642622
deltaT = 31.25
Time = 3843.75

diagonal:  Solving for Sb, Initial residual = 0, Final residual = 0, No Iterations 0
Saturation b:  Min(Sb) = 0.002 Max(Sb) = 0.86551
DICPCG:  Solving for p, Initial residual = 0.000753064, Final residual = 9.69888e-13, No Iterations 99
ExecutionTime = 2.70312 s  ClockTime = 3 s

Coats CFL Number mean: 0.00337746 max: 0.681972
deltaT = 31.25
Time = 3875

diagonal:  Solving for Sb, Initial residual = 0, Final residual = 0, No Iterations 0
Saturation b:  Min(Sb) = 0.002 Max(Sb) = 0.865497
DICPCG:  Solving for p, Initial residual = 0.000729813, Final residual = 8.32195e-13, No Iterations 96
ExecutionTime = 2.71875 s  ClockTime = 3 s

Coats CFL Number mean: 0.00338225 max: 0.735653
deltaT = 31.25
Time = 3906.25

diagonal:  Solving for Sb, Initial residual = 0, Final residual = 0, No Iterations 0
Saturation b:  Min(Sb) = 0.002 Max(Sb) = 0.865482
DICPCG:  Solving for p, Initial residual = 0.000772722, Final residual = 6.89781e-13, No Iterations 99
ExecutionTime = 2.71875 s  ClockTime = 3 s

Coats CFL Number mean: 0.00339043 max: 0.731586
deltaT = 31.25
Time = 3937.5

[...]

Coats CFL Number mean: 0.00586065 max: 0.623089
deltaT = 35.7143
Time = 23071.4

diagonal:  Solving for Sb, Initial residual = 0, Final residual = 0, No Iterations 0
Saturation b:  Min(Sb) = 0.002 Max(Sb) = 0.99052
DICPCG:  Solving for p, Initial residual = 0.000157692, Final residual = 6.97285e-13, No Iterations 95
ExecutionTime = 11.0469 s  ClockTime = 13 s

Coats CFL Number mean: 0.00581718 max: 0.618892
deltaT = 35.7143
Time = 23107.1

diagonal:  Solving for Sb, Initial residual = 0, Final residual = 0, No Iterations 0
Saturation b:  Min(Sb) = 0.002 Max(Sb) = 0.99053
DICPCG:  Solving for p, Initial residual = 0.000161305, Final residual = 6.76899e-13, No Iterations 95
ExecutionTime = 11.0625 s  ClockTime = 13 s

Coats CFL Number mean: 0.00577647 max: 0.614652
deltaT = 35.7143
Time = 23142.9

diagonal:  Solving for Sb, Initial residual = 0, Final residual = 0, No Iterations 0
Saturation b:  Min(Sb) = 0.002 Max(Sb) = 0.99054
DICPCG:  Solving for p, Initial residual = 0.000164227, Final residual = 6.91124e-13, No Iterations 95
ExecutionTime = 11.0625 s  ClockTime = 13 s

Coats CFL Number mean: 0.00572924 max: 0.610376
deltaT = 35.7143
Time = 23178.6

diagonal:  Solving for Sb, Initial residual = 0, Final residual = 0, No Iterations 0
Saturation b:  Min(Sb) = 0.002 Max(Sb) = 0.99055
DICPCG:  Solving for p, Initial residual = 0.000165315, Final residual = 8.30025e-13, No Iterations 95
ExecutionTime = 11.0938 s  ClockTime = 13 s

Coats CFL Number mean: 0.00566542 max: 0.606074
deltaT = 35.7143
Time = 23214.3

diagonal:  Solving for Sb, Initial residual = 0, Final residual = 0, No Iterations 0
Saturation b:  Min(Sb) = 0.002 Max(Sb) = 0.990559
DICPCG:  Solving for p, Initial residual = 0.00016319, Final residual = 8.90731e-13, No Iterations 96
ExecutionTime = 11.0938 s  ClockTime = 13 s

Coats CFL Number mean: 0.00557719 max: 0.601753
deltaT = 35.7143
Time = 23250

diagonal:  Solving for Sb, Initial residual = 0, Final residual = 0, No Iterations 0
Saturation b:  Min(Sb) = 0.002 Max(Sb) = 0.990569
DICPCG:  Solving for p, Initial residual = 0.000156625, Final residual = 7.2272e-13, No Iterations 98
ExecutionTime = 11.1406 s  ClockTime = 13 s

Coats CFL Number mean: 0.00546498 max: 0.597419
deltaT = 35.7143
Time = 23285.7

diagonal:  Solving for Sb, Initial residual = 0, Final residual = 0, No Iterations 0
Saturation b:  Min(Sb) = 0.002 Max(Sb) = 0.990578
DICPCG:  Solving for p, Initial residual = 0.00014541, Final residual = 7.36329e-13, No Iterations 98
ExecutionTime = 11.1562 s  ClockTime = 13 s

Coats CFL Number mean: 0.00534225 max: 0.593079
deltaT = 35.7143
Time = 23321.4

diagonal:  Solving for Sb, Initial residual = 0, Final residual = 0, No Iterations 0
Saturation b:  Min(Sb) = 0.002 Max(Sb) = 0.990588
DICPCG:  Solving for p, Initial residual = 0.000131172, Final residual = 7.30808e-13, No Iterations 98
ExecutionTime = 11.1562 s  ClockTime = 13 s

Coats CFL Number mean: 0.00522997 max: 0.588738
deltaT = 35.7143
Time = 23357.1

diagonal:  Solving for Sb, Initial residual = 0, Final residual = 0, No Iterations 0
Saturation b:  Min(Sb) = 0.002 Max(Sb) = 0.990598
DICPCG:  Solving for p, Initial residual = 0.000117204, Final residual = 9.84687e-13, No Iterations 97
ExecutionTime = 11.1719 s  ClockTime = 13 s

Coats CFL Number mean: 0.00514268 max: 0.584403
deltaT = 35.7143
Time = 23392.9

diagonal:  Solving for Sb, Initial residual = 0, Final residual = 0, No Iterations 0
Saturation b:  Min(Sb) = 0.002 Max(Sb) = 0.990607
DICPCG:  Solving for p, Initial residual = 0.000109927, Final residual = 6.96683e-13, No Iterations 98
ExecutionTime = 11.1875 s  ClockTime = 13 s

Coats CFL Number mean: 0.00508229 max: 0.580078
deltaT = 35.7143
Time = 23428.6

diagonal:  Solving for Sb, Initial residual = 0, Final residual = 0, No Iterations 0
Saturation b:  Min(Sb) = 0.002 Max(Sb) = 0.990616
DICPCG:  Solving for p, Initial residual = 0.000112684, Final residual = 9.98506e-13, No Iterations 97
ExecutionTime = 11.2031 s  ClockTime = 13 s

Coats CFL Number mean: 0.00504372 max: 0.575766
deltaT = 35.7143
Time = 23464.3

diagonal:  Solving for Sb, Initial residual = 0, Final residual = 0, No Iterations 0
Saturation b:  Min(Sb) = 0.002 Max(Sb) = 0.990626
DICPCG:  Solving for p, Initial residual = 0.000232423, Final residual = 8.72266e-13, No Iterations 95
ExecutionTime = 11.2188 s  ClockTime = 13 s

Coats CFL Number mean: 0.00502139 max: 0.576443
deltaT = 35.7143
Time = 23500

diagonal:  Solving for Sb, Initial residual = 0, Final residual = 0, No Iterations 0
Saturation b:  Min(Sb) = 0.002 Max(Sb) = 0.990635
DICPCG:  Solving for p, Initial residual = 0.000138347, Final residual = 9.06574e-13, No Iterations 97
ExecutionTime = 11.25 s  ClockTime = 13 s

Coats CFL Number mean: 0.00500495 max: 0.582411
deltaT = 35.7143
Time = 23535.7

diagonal:  Solving for Sb, Initial residual = 0, Final residual = 0, No Iterations 0
Saturation b:  Min(Sb) = 0.002 Max(Sb) = 0.990645
DICPCG:  Solving for p, Initial residual = 0.000125005, Final residual = 6.51882e-13, No Iterations 98
ExecutionTime = 11.2656 s  ClockTime = 13 s

Coats CFL Number mean: 0.00499535 max: 0.587011
deltaT = 35.7143
Time = 23571.4

diagonal:  Solving for Sb, Initial residual = 0, Final residual = 0, No Iterations 0
Saturation b:  Min(Sb) = 0.002 Max(Sb) = 0.990654
DICPCG:  Solving for p, Initial residual = 0.000129972, Final residual = 6.34721e-13, No Iterations 98
ExecutionTime = 11.2812 s  ClockTime = 13 s

Coats CFL Number mean: 0.00498971 max: 0.590421
deltaT = 35.7143
Time = 23607.1

diagonal:  Solving for Sb, Initial residual = 0, Final residual = 0, No Iterations 0
Saturation b:  Min(Sb) = 0.002 Max(Sb) = 0.990663
DICPCG:  Solving for p, Initial residual = 0.000139895, Final residual = 6.15112e-13, No Iterations 98
ExecutionTime = 11.2969 s  ClockTime = 13 s

Coats CFL Number mean: 0.00498736 max: 0.592793
deltaT = 35.7143
Time = 23642.9

diagonal:  Solving for Sb, Initial residual = 0, Final residual = 0, No Iterations 0
Saturation b:  Min(Sb) = 0.002 Max(Sb) = 0.990673
DICPCG:  Solving for p, Initial residual = 0.000140526, Final residual = 9.80684e-13, No Iterations 97
ExecutionTime = 11.2969 s  ClockTime = 13 s

Coats CFL Number mean: 0.00498801 max: 0.594266
deltaT = 35.7143
Time = 23678.6

diagonal:  Solving for Sb, Initial residual = 0, Final residual = 0, No Iterations 0
Saturation b:  Min(Sb) = 0.002 Max(Sb) = 0.990682
DICPCG:  Solving for p, Initial residual = 0.000145895, Final residual = 6.06481e-13, No Iterations 98
ExecutionTime = 11.3125 s  ClockTime = 13 s

Coats CFL Number mean: 0.00499135 max: 0.594954
deltaT = 35.7143
Time = 23714.3

diagonal:  Solving for Sb, Initial residual = 0, Final residual = 0, No Iterations 0
Saturation b:  Min(Sb) = 0.002 Max(Sb) = 0.990691
DICPCG:  Solving for p, Initial residual = 0.000150715, Final residual = 9.89841e-13, No Iterations 97
ExecutionTime = 11.3281 s  ClockTime = 13 s

Coats CFL Number mean: 0.00499648 max: 0.59496
deltaT = 35.7143
Time = 23750

diagonal:  Solving for Sb, Initial residual = 0, Final residual = 0, No Iterations 0
Saturation b:  Min(Sb) = 0.002 Max(Sb) = 0.9907
DICPCG:  Solving for p, Initial residual = 0.000156506, Final residual = 9.32054e-13, No Iterations 96
ExecutionTime = 11.375 s  ClockTime = 13 s

Coats CFL Number mean: 0.00500133 max: 0.594371
deltaT = 35.7143
Time = 23785.7

diagonal:  Solving for Sb, Initial residual = 0, Final residual = 0, No Iterations 0
Saturation b:  Min(Sb) = 0.002 Max(Sb) = 0.990709
DICPCG:  Solving for p, Initial residual = 0.00015746, Final residual = 8.68564e-13, No Iterations 97
ExecutionTime = 11.375 s  ClockTime = 13 s

Coats CFL Number mean: 0.00500209 max: 0.593265
deltaT = 35.7143
Time = 23821.4

diagonal:  Solving for Sb, Initial residual = 0, Final residual = 0, No Iterations 0
Saturation b:  Min(Sb) = 0.002 Max(Sb) = 0.990718
DICPCG:  Solving for p, Initial residual = 0.000157678, Final residual = 8.79212e-13, No Iterations 97
ExecutionTime = 11.3906 s  ClockTime = 13 s

Coats CFL Number mean: 0.00499357 max: 0.591712
deltaT = 35.7143
Time = 23857.1

diagonal:  Solving for Sb, Initial residual = 0, Final residual = 0, No Iterations 0
Saturation b:  Min(Sb) = 0.002 Max(Sb) = 0.990728
DICPCG:  Solving for p, Initial residual = 0.000154692, Final residual = 8.40482e-13, No Iterations 97
ExecutionTime = 11.4062 s  ClockTime = 13 s

Coats CFL Number mean: 0.00497168 max: 0.589774
deltaT = 35.7143
Time = 23892.9

diagonal:  Solving for Sb, Initial residual = 0, Final residual = 0, No Iterations 0
Saturation b:  Min(Sb) = 0.002 Max(Sb) = 0.990737
DICPCG:  Solving for p, Initial residual = 0.00014827, Final residual = 8.0314e-13, No Iterations 97
ExecutionTime = 11.4219 s  ClockTime = 13 s

Coats CFL Number mean: 0.00493828 max: 0.587508
deltaT = 35.7143
Time = 23928.6

diagonal:  Solving for Sb, Initial residual = 0, Final residual = 0, No Iterations 0
Saturation b:  Min(Sb) = 0.002 Max(Sb) = 0.990746
DICPCG:  Solving for p, Initial residual = 0.000178483, Final residual = 8.22692e-13, No Iterations 97
ExecutionTime = 11.4219 s  ClockTime = 13 s

Coats CFL Number mean: 0.00490044 max: 0.58494
deltaT = 35.7143
Time = 23964.3

diagonal:  Solving for Sb, Initial residual = 0, Final residual = 0, No Iterations 0
Saturation b:  Min(Sb) = 0.002 Max(Sb) = 0.990755
DICPCG:  Solving for p, Initial residual = 0.000129922, Final residual = 7.56119e-13, No Iterations 97
ExecutionTime = 11.4375 s  ClockTime = 13 s

Coats CFL Number mean: 0.00486785 max: 0.582157
deltaT = 35.7143
Time = 24000

diagonal:  Solving for Sb, Initial residual = 0, Final residual = 0, No Iterations 0
Saturation b:  Min(Sb) = 0.002 Max(Sb) = 0.990764
DICPCG:  Solving for p, Initial residual = 0.000122458, Final residual = 7.17135e-13, No Iterations 97
ExecutionTime = 11.4844 s  ClockTime = 13 s

Coats CFL Number mean: 0.0048461 max: 0.579175
deltaT = 35.7143
Time = 24035.7

diagonal:  Solving for Sb, Initial residual = 0, Final residual = 0, No Iterations 0
Saturation b:  Min(Sb) = 0.002 Max(Sb) = 0.990773
DICPCG:  Solving for p, Initial residual = 0.000126265, Final residual = 6.84602e-13, No Iterations 97
ExecutionTime = 11.4844 s  ClockTime = 13 s

Coats CFL Number mean: 0.00483304 max: 0.57602
deltaT = 35.7143
Time = 24071.4

diagonal:  Solving for Sb, Initial residual = 0, Final residual = 0, No Iterations 0
Saturation b:  Min(Sb) = 0.002 Max(Sb) = 0.990781
DICPCG:  Solving for p, Initial residual = 0.000130899, Final residual = 9.01457e-13, No Iterations 96
ExecutionTime = 11.5 s  ClockTime = 13 s

Coats CFL Number mean: 0.00482184 max: 0.572701
deltaT = 35.7143
Time = 24107.1

diagonal:  Solving for Sb, Initial residual = 0, Final residual = 0, No Iterations 0
Saturation b:  Min(Sb) = 0.002 Max(Sb) = 0.99079
DICPCG:  Solving for p, Initial residual = 0.000132455, Final residual = 8.84957e-13, No Iterations 96
ExecutionTime = 11.5156 s  ClockTime = 13 s

Coats CFL Number mean: 0.0047995 max: 0.569266
deltaT = 35.7143
Time = 24142.9

diagonal:  Solving for Sb, Initial residual = 0, Final residual = 0, No Iterations 0
Saturation b:  Min(Sb) = 0.002 Max(Sb) = 0.990799
DICPCG:  Solving for p, Initial residual = 0.000133284, Final residual = 8.69455e-13, No Iterations 96
ExecutionTime = 11.5312 s  ClockTime = 13 s

Coats CFL Number mean: 0.00475758 max: 0.565732
deltaT = 35.7143
Time = 24178.6

diagonal:  Solving for Sb, Initial residual = 0, Final residual = 0, No Iterations 0
Saturation b:  Min(Sb) = 0.002 Max(Sb) = 0.990808
DICPCG:  Solving for p, Initial residual = 0.000131409, Final residual = 8.5506e-13, No Iterations 96
ExecutionTime = 11.5469 s  ClockTime = 13 s

Coats CFL Number mean: 0.00469101 max: 0.562117
deltaT = 35.7143
Time = 24214.3

diagonal:  Solving for Sb, Initial residual = 0, Final residual = 0, No Iterations 0
Saturation b:  Min(Sb) = 0.002 Max(Sb) = 0.990817
DICPCG:  Solving for p, Initial residual = 0.000126164, Final residual = 8.41322e-13, No Iterations 96
ExecutionTime = 11.5469 s  ClockTime = 13 s

Coats CFL Number mean: 0.00460232 max: 0.558433
deltaT = 35.7143
Time = 24250

diagonal:  Solving for Sb, Initial residual = 0, Final residual = 0, No Iterations 0
Saturation b:  Min(Sb) = 0.002 Max(Sb) = 0.990826
DICPCG:  Solving for p, Initial residual = 0.000117658, Final residual = 8.2425e-13, No Iterations 96
ExecutionTime = 11.6094 s  ClockTime = 13 s

Coats CFL Number mean: 0.00450325 max: 0.554696
deltaT = 35.7143
Time = 24285.7

diagonal:  Solving for Sb, Initial residual = 0, Final residual = 0, No Iterations 0
Saturation b:  Min(Sb) = 0.002 Max(Sb) = 0.990834
DICPCG:  Solving for p, Initial residual = 0.000107112, Final residual = 7.97922e-13, No Iterations 96
ExecutionTime = 11.625 s  ClockTime = 13 s

Coats CFL Number mean: 0.00440929 max: 0.550917
deltaT = 35.7143
Time = 24321.4

diagonal:  Solving for Sb, Initial residual = 0, Final residual = 0, No Iterations 0
Saturation b:  Min(Sb) = 0.002 Max(Sb) = 0.990843
DICPCG:  Solving for p, Initial residual = 9.64801e-05, Final residual = 7.6701e-13, No Iterations 96
ExecutionTime = 11.625 s  ClockTime = 13 s

Coats CFL Number mean: 0.00433172 max: 0.547104
deltaT = 35.7143
Time = 24357.1

diagonal:  Solving for Sb, Initial residual = 0, Final residual = 0, No Iterations 0
Saturation b:  Min(Sb) = 0.002 Max(Sb) = 0.990852
DICPCG:  Solving for p, Initial residual = 8.89206e-05, Final residual = 7.33365e-13, No Iterations 96
ExecutionTime = 11.6406 s  ClockTime = 13 s

Coats CFL Number mean: 0.00427308 max: 0.543266
deltaT = 35.7143
Time = 24392.9

diagonal:  Solving for Sb, Initial residual = 0, Final residual = 0, No Iterations 0
Saturation b:  Min(Sb) = 0.002 Max(Sb) = 0.99086
DICPCG:  Solving for p, Initial residual = 9.13327e-05, Final residual = 7.00664e-13, No Iterations 96
ExecutionTime = 11.6562 s  ClockTime = 13 s

Coats CFL Number mean: 0.00423008 max: 0.539408
deltaT = 35.7143
Time = 24428.6

diagonal:  Solving for Sb, Initial residual = 0, Final residual = 0, No Iterations 0
Saturation b:  Min(Sb) = 0.002 Max(Sb) = 0.990869
DICPCG:  Solving for p, Initial residual = 9.41972e-05, Final residual = 9.90607e-13, No Iterations 95
ExecutionTime = 11.6562 s  ClockTime = 13 s

Coats CFL Number mean: 0.00419797 max: 0.535538
deltaT = 35.7143
Time = 24464.3

diagonal:  Solving for Sb, Initial residual = 0, Final residual = 0, No Iterations 0
Saturation b:  Min(Sb) = 0.002 Max(Sb) = 0.990878
DICPCG:  Solving for p, Initial residual = 9.7439e-05, Final residual = 9.30994e-13, No Iterations 95
ExecutionTime = 11.6719 s  ClockTime = 13 s

Coats CFL Number mean: 0.00417302 max: 0.531659
deltaT = 35.7143
Time = 24500

diagonal:  Solving for Sb, Initial residual = 0, Final residual = 0, No Iterations 0
Saturation b:  Min(Sb) = 0.002 Max(Sb) = 0.990886
DICPCG:  Solving for p, Initial residual = 0.00010098, Final residual = 9.94446e-13, No Iterations 94
ExecutionTime = 11.7188 s  ClockTime = 13 s

Coats CFL Number mean: 0.0041531 max: 0.527776
deltaT = 35.7143
Time = 24535.7

diagonal:  Solving for Sb, Initial residual = 0, Final residual = 0, No Iterations 0
Saturation b:  Min(Sb) = 0.002 Max(Sb) = 0.990895
DICPCG:  Solving for p, Initial residual = 0.000104762, Final residual = 9.37373e-13, No Iterations 94
ExecutionTime = 11.7344 s  ClockTime = 13 s

Coats CFL Number mean: 0.00413744 max: 0.523896
deltaT = 35.7143
Time = 24571.4

diagonal:  Solving for Sb, Initial residual = 0, Final residual = 0, No Iterations 0
Saturation b:  Min(Sb) = 0.002 Max(Sb) = 0.990903
DICPCG:  Solving for p, Initial residual = 0.000120717, Final residual = 8.53902e-13, No Iterations 94
ExecutionTime = 11.75 s  ClockTime = 13 s

Coats CFL Number mean: 0.00412633 max: 0.520012
deltaT = 35.7143
Time = 24607.1

diagonal:  Solving for Sb, Initial residual = 0, Final residual = 0, No Iterations 0
Saturation b:  Min(Sb) = 0.002 Max(Sb) = 0.990912
DICPCG:  Solving for p, Initial residual = 0.000112893, Final residual = 9.53233e-13, No Iterations 93
ExecutionTime = 11.75 s  ClockTime = 13 s

Coats CFL Number mean: 0.00411927 max: 0.516152
deltaT = 35.7143
Time = 24642.9

diagonal:  Solving for Sb, Initial residual = 0, Final residual = 0, No Iterations 0
Saturation b:  Min(Sb) = 0.002 Max(Sb) = 0.99092
DICPCG:  Solving for p, Initial residual = 0.00011716, Final residual = 8.92743e-13, No Iterations 93
ExecutionTime = 11.7656 s  ClockTime = 13 s

Coats CFL Number mean: 0.00411699 max: 0.512314
deltaT = 35.7143
Time = 24678.6

diagonal:  Solving for Sb, Initial residual = 0, Final residual = 0, No Iterations 0
Saturation b:  Min(Sb) = 0.002 Max(Sb) = 0.990929
DICPCG:  Solving for p, Initial residual = 0.000121497, Final residual = 8.35942e-13, No Iterations 93
ExecutionTime = 11.7812 s  ClockTime = 13 s

Coats CFL Number mean: 0.00412007 max: 0.5085
deltaT = 35.7143
Time = 24714.3

diagonal:  Solving for Sb, Initial residual = 0, Final residual = 0, No Iterations 0
Saturation b:  Min(Sb) = 0.002 Max(Sb) = 0.990937
DICPCG:  Solving for p, Initial residual = 0.000125792, Final residual = 7.97922e-13, No Iterations 93
ExecutionTime = 11.7812 s  ClockTime = 13 s

Coats CFL Number mean: 0.00412889 max: 0.504711
deltaT = 35.7143
Time = 24750

diagonal:  Solving for Sb, Initial residual = 0, Final residual = 0, No Iterations 0
Saturation b:  Min(Sb) = 0.002 Max(Sb) = 0.990945
DICPCG:  Solving for p, Initial residual = 0.000129864, Final residual = 7.81214e-13, No Iterations 93
ExecutionTime = 11.8281 s  ClockTime = 13 s

Coats CFL Number mean: 0.00414324 max: 0.500949
deltaT = 35.7143
Time = 24785.7

diagonal:  Solving for Sb, Initial residual = 0, Final residual = 0, No Iterations 0
Saturation b:  Min(Sb) = 0.002 Max(Sb) = 0.990954
DICPCG:  Solving for p, Initial residual = 0.000133429, Final residual = 7.84862e-13, No Iterations 93
ExecutionTime = 11.8438 s  ClockTime = 14 s

Coats CFL Number mean: 0.00416189 max: 0.498866
deltaT = 35.7143
Time = 24821.4

diagonal:  Solving for Sb, Initial residual = 0, Final residual = 0, No Iterations 0
Saturation b:  Min(Sb) = 0.002 Max(Sb) = 0.990962
DICPCG:  Solving for p, Initial residual = 0.000170909, Final residual = 7.14059e-13, No Iterations 94
ExecutionTime = 11.8594 s  ClockTime = 14 s

Coats CFL Number mean: 0.00418227 max: 0.501292
deltaT = 35.7143
Time = 24857.1

diagonal:  Solving for Sb, Initial residual = 0, Final residual = 0, No Iterations 0
Saturation b:  Min(Sb) = 0.002 Max(Sb) = 0.99097
DICPCG:  Solving for p, Initial residual = 0.000137234, Final residual = 9.79245e-13, No Iterations 93
ExecutionTime = 11.875 s  ClockTime = 14 s

Coats CFL Number mean: 0.0041963 max: 0.502547
deltaT = 35.7143
Time = 24892.9

diagonal:  Solving for Sb, Initial residual = 0, Final residual = 0, No Iterations 0
Saturation b:  Min(Sb) = 0.002 Max(Sb) = 0.990979
DICPCG:  Solving for p, Initial residual = 0.000136374, Final residual = 8.52112e-13, No Iterations 94
ExecutionTime = 11.8906 s  ClockTime = 14 s

Coats CFL Number mean: 0.00419998 max: 0.502704
deltaT = 35.7143
Time = 24928.6

diagonal:  Solving for Sb, Initial residual = 0, Final residual = 0, No Iterations 0
Saturation b:  Min(Sb) = 0.002 Max(Sb) = 0.990987
DICPCG:  Solving for p, Initial residual = 0.000133078, Final residual = 8.8884e-13, No Iterations 94
ExecutionTime = 11.8906 s  ClockTime = 14 s

Coats CFL Number mean: 0.00419027 max: 0.501923
deltaT = 35.7143
Time = 24964.3

diagonal:  Solving for Sb, Initial residual = 0, Final residual = 0, No Iterations 0
Saturation b:  Min(Sb) = 0.002 Max(Sb) = 0.990995
DICPCG:  Solving for p, Initial residual = 0.000127507, Final residual = 8.24034e-13, No Iterations 94
ExecutionTime = 11.9062 s  ClockTime = 14 s

Coats CFL Number mean: 0.00416886 max: 0.50034
deltaT = 35.7143
Time = 25000

diagonal:  Solving for Sb, Initial residual = 0, Final residual = 0, No Iterations 0
Saturation b:  Min(Sb) = 0.002 Max(Sb) = 0.991003
DICPCG:  Solving for p, Initial residual = 0.000120485, Final residual = 7.63856e-13, No Iterations 93
ExecutionTime = 11.9375 s  ClockTime = 14 s

End

