/*---------------------------------------------------------------------------*\
  =========                 |
  \\      /  F ield         | OpenFOAM: The Open Source CFD Toolbox
   \\    /   O peration     | Website:  https://openfoam.org
    \\  /    A nd           | Version:  10
     \\/     M anipulation  |
\*---------------------------------------------------------------------------*/
Build  : 10-c4cf895ad8fa
Exec   : impesFoam -parallel
Date   : Feb 27 2025
Time   : 11:03:29
Host   : "HWLAP0350-EPS"
PID    : 15601
I/O    : uncollated
Case   : /home/ap2095/OpenFOAM/ap2095-10/run/6pitzdaily_impesfoam_gas_10s
nProcs : 4
Slaves : 
3
(
"HWLAP0350-EPS.15602"
"HWLAP0350-EPS.15603"
"HWLAP0350-EPS.15604"
)

Pstream initialised with:
    floatTransfer      : 0
    nProcsSimpleSum    : 0
    commsType          : nonBlocking
    polling iterations : 0
sigFpe : Enabling floating point exception trapping (FOAM_SIGFPE).
fileModificationChecking : Monitoring run-time modified files using timeStampMaster (fileModificationSkew 10)
allowSystemOperations : Allowing user-supplied system call operations

// * * * * * * * * * * * * * * * * * * * * * * * * * * * * * * * * * * * * * //

**********************************
Current version of PMF is 2310.0.0
**********************************

Create time

Create mesh for time = 0


Reading g
Reading pressure field p

Reading saturation field Sb

Reading transportProperties

Computing field phia from field Ua

Computing field phib from field Ub

Selecting porousMedium model => simplePorosity

Selecting capillarity model for field Sb => BrooksAndCorey

Brooks and Corey parameters for capillarity pressure model
{
    Sbmin 1e-06
    Sbmax 0.999999
    pc0 5
    alpha 0.2
    hd 0
} 

Selecting relativePermeability model for field Sb => BrooksAndCorey

Brooks and Corey parameters for relative permeability model
{
    Sbmin 1e-06
    Sbmax 0.999999
    n 4
    kramax 1
    krbmax 1
} 


Reading field U
Reading/calculating face flux field phi


Reading Event file 'injection.evt' ...OK!
{
  number of dates       = 2
  number of coordinates = 1
  number datas          = 2
}

Starting time loop

Coats CFL Number mean: 1.48046e-26 max: 2.31928e-25
deltaT = 0.000119048
Time = 0.000119048

diagonal:  Solving for Sb, Initial residual = 0, Final residual = 0, No Iterations 0
Saturation b:  Min(Sb) = 1.1e-06 Max(Sb) = 0.0486717
DICPCG:  Solving for p, Initial residual = 1, Final residual = 9.41161e-13, No Iterations 323
ExecutionTime = 0.15625 s  ClockTime = 1 s

Coats CFL Number mean: 1.33903e-10 max: 1.63696e-06
deltaT = 0.000141156
Time = 0.000260204

diagonal:  Solving for Sb, Initial residual = 0, Final residual = 0, No Iterations 0
Saturation b:  Min(Sb) = 1.1e-06 Max(Sb) = 0.106379
DICPCG:  Solving for p, Initial residual = 0.0165991, Final residual = 9.9041e-13, No Iterations 295
ExecutionTime = 0.171875 s  ClockTime = 1 s

Coats CFL Number mean: 2.26665e-09 max: 2.77098e-05
deltaT = 0.000167928
Time = 0.000428132

diagonal:  Solving for Sb, Initial residual = 0, Final residual = 0, No Iterations 0
Saturation b:  Min(Sb) = 1.1e-06 Max(Sb) = 0.175026
DICPCG:  Solving for p, Initial residual = 0.00499349, Final residual = 8.62178e-13, No Iterations 280
ExecutionTime = 0.203125 s  ClockTime = 1 s

Coats CFL Number mean: 1.79061e-08 max: 0.000218902
deltaT = 0.000199414
Time = 0.000627546

diagonal:  Solving for Sb, Initial residual = 0, Final residual = 0, No Iterations 0
Saturation b:  Min(Sb) = 1.1e-06 Max(Sb) = 0.256532
DICPCG:  Solving for p, Initial residual = 0.00599562, Final residual = 9.07121e-13, No Iterations 281
ExecutionTime = 0.234375 s  ClockTime = 1 s

Coats CFL Number mean: 1.12469e-07 max: 0.00137493
deltaT = 0.000234311
Time = 0.000861857

diagonal:  Solving for Sb, Initial residual = 0, Final residual = 0, No Iterations 0
Saturation b:  Min(Sb) = 1.1e-06 Max(Sb) = 0.352246
DICPCG:  Solving for p, Initial residual = 0.0074108, Final residual = 8.15712e-13, No Iterations 282
ExecutionTime = 0.265625 s  ClockTime = 1 s

Coats CFL Number mean: 6.75822e-07 max: 0.00826192
deltaT = 0.000276913
Time = 0.00113877

diagonal:  Solving for Sb, Initial residual = 0, Final residual = 0, No Iterations 0
Saturation b:  Min(Sb) = 1.1e-06 Max(Sb) = 0.46506
DICPCG:  Solving for p, Initial residual = 0.00924496, Final residual = 8.54771e-13, No Iterations 278
ExecutionTime = 0.28125 s  ClockTime = 1 s

Coats CFL Number mean: 4.53365e-06 max: 0.0554239
deltaT = 0.000328194
Time = 0.00146696

diagonal:  Solving for Sb, Initial residual = 0, Final residual = 0, No Iterations 0
Saturation b:  Min(Sb) = 1.1e-06 Max(Sb) = 0.596489
DICPCG:  Solving for p, Initial residual = 0.0110239, Final residual = 8.55704e-13, No Iterations 285
ExecutionTime = 0.3125 s  ClockTime = 1 s

Coats CFL Number mean: 3.06196e-05 max: 0.374324
deltaT = 0.000387865
Time = 0.00185483

diagonal:  Solving for Sb, Initial residual = 0, Final residual = 0, No Iterations 0
Saturation b:  Min(Sb) = 1.1e-06 Max(Sb) = 0.731845
DICPCG:  Solving for p, Initial residual = 0.00881174, Final residual = 8.62067e-13, No Iterations 292
ExecutionTime = 0.34375 s  ClockTime = 1 s

Coats CFL Number mean: 4.83377e-05 max: 0.590928
deltaT = 0.000428693
Time = 0.00228352

diagonal:  Solving for Sb, Initial residual = 0, Final residual = 0, No Iterations 0
Saturation b:  Min(Sb) = 1.1e-06 Max(Sb) = 0.790648
DICPCG:  Solving for p, Initial residual = 0.00500476, Final residual = 9.92639e-13, No Iterations 287
ExecutionTime = 0.359375 s  ClockTime = 1 s

Coats CFL Number mean: 2.53926e-05 max: 0.310389
deltaT = 0.000514432
Time = 0.00279795

diagonal:  Solving for Sb, Initial residual = 0, Final residual = 0, No Iterations 0
Saturation b:  Min(Sb) = 1.1e-06 Max(Sb) = 0.816172
DICPCG:  Solving for p, Initial residual = 0.00692423, Final residual = 8.82527e-13, No Iterations 284
ExecutionTime = 0.390625 s  ClockTime = 1 s

Coats CFL Number mean: 1.90869e-05 max: 0.23243
deltaT = 0.00060017
Time = 0.00339812

diagonal:  Solving for Sb, Initial residual = 0, Final residual = 0, No Iterations 0
Saturation b:  Min(Sb) = 1.1e-06 Max(Sb) = 0.832775
DICPCG:  Solving for p, Initial residual = 0.00822775, Final residual = 7.95075e-13, No Iterations 284
ExecutionTime = 0.421875 s  ClockTime = 1 s

Coats CFL Number mean: 1.65177e-05 max: 0.19061
deltaT = 0.000660188
Time = 0.00405831

diagonal:  Solving for Sb, Initial residual = 0, Final residual = 0, No Iterations 0
Saturation b:  Min(Sb) = 1.1e-06 Max(Sb) = 0.844687
DICPCG:  Solving for p, Initial residual = 0.00950319, Final residual = 8.17912e-13, No Iterations 284
ExecutionTime = 0.4375 s  ClockTime = 1 s

Coats CFL Number mean: 2.18579e-05 max: 0.159082
deltaT = 0.000742711
Time = 0.00480102

diagonal:  Solving for Sb, Initial residual = 0, Final residual = 0, No Iterations 0
Saturation b:  Min(Sb) = 1.1e-06 Max(Sb) = 0.854388
DICPCG:  Solving for p, Initial residual = 0.010856, Final residual = 9.92397e-13, No Iterations 285
ExecutionTime = 0.46875 s  ClockTime = 1 s

Coats CFL Number mean: 8.64747e-05 max: 0.834578
deltaT = 0.000649872
Time = 0.0054509

diagonal:  Solving for Sb, Initial residual = 0, Final residual = 0, No Iterations 0
Saturation b:  Min(Sb) = 1.1e-06 Max(Sb) = 0.86101
DICPCG:  Solving for p, Initial residual = 0.0081906, Final residual = 9.06089e-13, No Iterations 278
ExecutionTime = 0.5 s  ClockTime = 1 s

Coats CFL Number mean: 0.000133526 max: 1.19987
deltaT = 0.000379092
Time = 0.00582999

diagonal:  Solving for Sb, Initial residual = 0, Final residual = 0, No Iterations 0
Saturation b:  Min(Sb) = 1.1e-06 Max(Sb) = 0.864317
DICPCG:  Solving for p, Initial residual = 0.00363564, Final residual = 8.9566e-13, No Iterations 282
ExecutionTime = 0.515625 s  ClockTime = 1 s

Coats CFL Number mean: 8.57231e-05 max: 0.635511
deltaT = 0.000417001
Time = 0.00624699

diagonal:  Solving for Sb, Initial residual = 0, Final residual = 0, No Iterations 0
Saturation b:  Min(Sb) = 1.1e-06 Max(Sb) = 0.867665
DICPCG:  Solving for p, Initial residual = 0.00301701, Final residual = 9.01366e-13, No Iterations 282
ExecutionTime = 0.546875 s  ClockTime = 1 s

Coats CFL Number mean: 9.80245e-05 max: 0.596614
deltaT = 0.000469126
Time = 0.00671612

diagonal:  Solving for Sb, Initial residual = 0, Final residual = 0, No Iterations 0
Saturation b:  Min(Sb) = 1.1e-06 Max(Sb) = 0.871102
DICPCG:  Solving for p, Initial residual = 0.00300083, Final residual = 8.85995e-13, No Iterations 280
ExecutionTime = 0.578125 s  ClockTime = 1 s

Coats CFL Number mean: 0.000101199 max: 0.628389
deltaT = 0.000469126
Time = 0.00718524

diagonal:  Solving for Sb, Initial residual = 0, Final residual = 0, No Iterations 0
Saturation b:  Min(Sb) = 1.1e-06 Max(Sb) = 0.874185
DICPCG:  Solving for p, Initial residual = 0.0032099, Final residual = 8.53856e-13, No Iterations 273
ExecutionTime = 0.59375 s  ClockTime = 1 s

Coats CFL Number mean: 8.72423e-05 max: 0.553898
deltaT = 0.000469126
Time = 0.00765437

diagonal:  Solving for Sb, Initial residual = 0, Final residual = 0, No Iterations 0
Saturation b:  Min(Sb) = 1.1e-06 Max(Sb) = 0.876955
DICPCG:  Solving for p, Initial residual = 0.00350688, Final residual = 7.76313e-13, No Iterations 276
ExecutionTime = 0.625 s  ClockTime = 1 s

Coats CFL Number mean: 7.49566e-05 max: 0.474513
deltaT = 0.000469126
Time = 0.00812349

diagonal:  Solving for Sb, Initial residual = 0, Final residual = 0, No Iterations 0
Saturation b:  Min(Sb) = 1.1e-06 Max(Sb) = 0.879462
DICPCG:  Solving for p, Initial residual = 0.00388715, Final residual = 8.80993e-13, No Iterations 265
ExecutionTime = 0.65625 s  ClockTime = 1 s

Coats CFL Number mean: 6.53399e-05 max: 0.408726
deltaT = 0.000469126
Time = 0.00859262

diagonal:  Solving for Sb, Initial residual = 0, Final residual = 0, No Iterations 0
Saturation b:  Min(Sb) = 1.1e-06 Max(Sb) = 0.881746
DICPCG:  Solving for p, Initial residual = 0.00408622, Final residual = 9.32937e-13, No Iterations 274
ExecutionTime = 0.671875 s  ClockTime = 1 s

Coats CFL Number mean: 5.8117e-05 max: 0.356494
deltaT = 0.000469126
Time = 0.00906175

diagonal:  Solving for Sb, Initial residual = 0, Final residual = 0, No Iterations 0
Saturation b:  Min(Sb) = 1.1e-06 Max(Sb) = 0.883843
DICPCG:  Solving for p, Initial residual = 0.00431572, Final residual = 9.0238e-13, No Iterations 267
ExecutionTime = 0.703125 s  ClockTime = 1 s

Coats CFL Number mean: 5.31247e-05 max: 0.314916
deltaT = 0.000469126
Time = 0.00953087

diagonal:  Solving for Sb, Initial residual = 0, Final residual = 0, No Iterations 0
Saturation b:  Min(Sb) = 1.1e-06 Max(Sb) = 0.885782
DICPCG:  Solving for p, Initial residual = 0.00451481, Final residual = 9.46068e-13, No Iterations 277
ExecutionTime = 0.71875 s  ClockTime = 1 s

Coats CFL Number mean: 5.07219e-05 max: 0.281297
deltaT = 0.000469126
Time = 0.01

diagonal:  Solving for Sb, Initial residual = 0, Final residual = 0, No Iterations 0
Saturation b:  Min(Sb) = 1.1e-06 Max(Sb) = 0.887587
DICPCG:  Solving for p, Initial residual = 0.0207255, Final residual = 9.98444e-13, No Iterations 299
ExecutionTime = 0.765625 s  ClockTime = 1 s

Coats CFL Number mean: 2.89863e-05 max: 0.13531
deltaT = 0.000555556
Time = 0.0105556

diagonal:  Solving for Sb, Initial residual = 0, Final residual = 0, No Iterations 0
Saturation b:  Min(Sb) = 1.1e-06 Max(Sb) = 0.888608
DICPCG:  Solving for p, Initial residual = 0.00506536, Final residual = 9.78494e-13, No Iterations 282
ExecutionTime = 0.828125 s  ClockTime = 1 s

Coats CFL Number mean: 3.72396e-05 max: 0.151845
deltaT = 0.00062963
Time = 0.0111852

diagonal:  Solving for Sb, Initial residual = 0, Final residual = 0, No Iterations 0
Saturation b:  Min(Sb) = 1.1e-06 Max(Sb) = 0.889722
DICPCG:  Solving for p, Initial residual = 0.00590981, Final residual = 7.58167e-13, No Iterations 283
ExecutionTime = 0.84375 s  ClockTime = 1 s

Coats CFL Number mean: 4.91757e-05 max: 0.163495
deltaT = 0.000734568
Time = 0.0119198

diagonal:  Solving for Sb, Initial residual = 0, Final residual = 0, No Iterations 0
Saturation b:  Min(Sb) = 1.1e-06 Max(Sb) = 0.890964
DICPCG:  Solving for p, Initial residual = 0.0069052, Final residual = 9.37752e-13, No Iterations 286
ExecutionTime = 0.875 s  ClockTime = 1 s

Coats CFL Number mean: 8.25369e-05 max: 0.268875
deltaT = 0.000808025
Time = 0.0127278

diagonal:  Solving for Sb, Initial residual = 0, Final residual = 0, No Iterations 0
Saturation b:  Min(Sb) = 1.1e-06 Max(Sb) = 0.892263
DICPCG:  Solving for p, Initial residual = 0.0071225, Final residual = 9.52829e-13, No Iterations 291
ExecutionTime = 0.90625 s  ClockTime = 1 s

Coats CFL Number mean: 0.000196447 max: 1.05541
deltaT = 0.000559402
Time = 0.0132872

diagonal:  Solving for Sb, Initial residual = 0, Final residual = 0, No Iterations 0
Saturation b:  Min(Sb) = 1.1e-06 Max(Sb) = 0.893115
DICPCG:  Solving for p, Initial residual = 0.00333783, Final residual = 8.17538e-13, No Iterations 286
ExecutionTime = 0.9375 s  ClockTime = 1 s

Coats CFL Number mean: 0.000163733 max: 0.87232
deltaT = 0.000479487
Time = 0.0137667

diagonal:  Solving for Sb, Initial residual = 0, Final residual = 0, No Iterations 0
Saturation b:  Min(Sb) = 1.1e-06 Max(Sb) = 0.89382
DICPCG:  Solving for p, Initial residual = 0.00259426, Final residual = 8.92697e-13, No Iterations 280
ExecutionTime = 0.96875 s  ClockTime = 2 s

Coats CFL Number mean: 0.000142637 max: 0.636905
deltaT = 0.000519444
Time = 0.0142861

diagonal:  Solving for Sb, Initial residual = 0, Final residual = 0, No Iterations 0
Saturation b:  Min(Sb) = 1.1e-06 Max(Sb) = 0.894562
DICPCG:  Solving for p, Initial residual = 0.00278189, Final residual = 8.28573e-13, No Iterations 274
ExecutionTime = 0.984375 s  ClockTime = 2 s

Coats CFL Number mean: 0.000153723 max: 0.562653
deltaT = 0.000571389
Time = 0.0148575

diagonal:  Solving for Sb, Initial residual = 0, Final residual = 0, No Iterations 0
Saturation b:  Min(Sb) = 1.1e-06 Max(Sb) = 0.895353
DICPCG:  Solving for p, Initial residual = 0.0029326, Final residual = 9.68535e-13, No Iterations 280
ExecutionTime = 1.01562 s  ClockTime = 2 s

Coats CFL Number mean: 0.000164324 max: 0.532889
deltaT = 0.000642813
Time = 0.0155003

diagonal:  Solving for Sb, Initial residual = 0, Final residual = 0, No Iterations 0
Saturation b:  Min(Sb) = 1.1e-06 Max(Sb) = 0.896213
DICPCG:  Solving for p, Initial residual = 0.00325512, Final residual = 8.13525e-13, No Iterations 281
ExecutionTime = 1.04688 s  ClockTime = 2 s

Coats CFL Number mean: 0.000174241 max: 0.559822
deltaT = 0.000642813
Time = 0.0161431

diagonal:  Solving for Sb, Initial residual = 0, Final residual = 0, No Iterations 0
Saturation b:  Min(Sb) = 1.1e-06 Max(Sb) = 0.897042
DICPCG:  Solving for p, Initial residual = 0.00344628, Final residual = 9.72019e-13, No Iterations 279
ExecutionTime = 1.0625 s  ClockTime = 2 s

Coats CFL Number mean: 0.000163003 max: 0.507028
deltaT = 0.000642813
Time = 0.0167859

diagonal:  Solving for Sb, Initial residual = 0, Final residual = 0, No Iterations 0
Saturation b:  Min(Sb) = 1.1e-06 Max(Sb) = 0.897842
DICPCG:  Solving for p, Initial residual = 0.0036549, Final residual = 8.13592e-13, No Iterations 278
ExecutionTime = 1.09375 s  ClockTime = 2 s

Coats CFL Number mean: 0.000158315 max: 0.461029
deltaT = 0.000642813
Time = 0.0174287

diagonal:  Solving for Sb, Initial residual = 0, Final residual = 0, No Iterations 0
Saturation b:  Min(Sb) = 1.1e-06 Max(Sb) = 0.898615
DICPCG:  Solving for p, Initial residual = 0.00371171, Final residual = 8.79745e-13, No Iterations 282
ExecutionTime = 1.125 s  ClockTime = 2 s

Coats CFL Number mean: 0.00016996 max: 0.426796
deltaT = 0.000642813
Time = 0.0180716

diagonal:  Solving for Sb, Initial residual = 0, Final residual = 0, No Iterations 0
Saturation b:  Min(Sb) = 1.1e-06 Max(Sb) = 0.899362
DICPCG:  Solving for p, Initial residual = 0.00351357, Final residual = 9.5675e-13, No Iterations 282
ExecutionTime = 1.15625 s  ClockTime = 2 s

Coats CFL Number mean: 0.000186755 max: 0.713991
deltaT = 0.000642813
Time = 0.0187144

diagonal:  Solving for Sb, Initial residual = 0, Final residual = 0, No Iterations 0
Saturation b:  Min(Sb) = 1.1e-06 Max(Sb) = 0.900085
DICPCG:  Solving for p, Initial residual = 0.00316527, Final residual = 8.27893e-13, No Iterations 277
ExecutionTime = 1.17188 s  ClockTime = 2 s

Coats CFL Number mean: 0.000181467 max: 0.747495
deltaT = 0.000642813
Time = 0.0193572

diagonal:  Solving for Sb, Initial residual = 0, Final residual = 0, No Iterations 0
Saturation b:  Min(Sb) = 1.1e-06 Max(Sb) = 0.900786
DICPCG:  Solving for p, Initial residual = 0.00348172, Final residual = 8.92586e-13, No Iterations 279
ExecutionTime = 1.20312 s  ClockTime = 2 s

Coats CFL Number mean: 0.000167369 max: 0.651299
deltaT = 0.000642813
Time = 0.02

diagonal:  Solving for Sb, Initial residual = 0, Final residual = 0, No Iterations 0
Saturation b:  Min(Sb) = 1.1e-06 Max(Sb) = 0.901464
DICPCG:  Solving for p, Initial residual = 0.0037611, Final residual = 9.35138e-13, No Iterations 280
ExecutionTime = 1.25 s  ClockTime = 2 s

Coats CFL Number mean: 0.000156347 max: 0.555844
deltaT = 0.000714286
Time = 0.0207143

diagonal:  Solving for Sb, Initial residual = 0, Final residual = 0, No Iterations 0
Saturation b:  Min(Sb) = 1.1e-06 Max(Sb) = 0.902196
DICPCG:  Solving for p, Initial residual = 0.00437465, Final residual = 9.02395e-13, No Iterations 280
ExecutionTime = 1.32812 s  ClockTime = 2 s

Coats CFL Number mean: 0.000168411 max: 0.524884
deltaT = 0.00077381
Time = 0.0214881

diagonal:  Solving for Sb, Initial residual = 0, Final residual = 0, No Iterations 0
Saturation b:  Min(Sb) = 1.1e-06 Max(Sb) = 0.902963
DICPCG:  Solving for p, Initial residual = 0.00481128, Final residual = 9.22025e-13, No Iterations 273
ExecutionTime = 1.35938 s  ClockTime = 2 s

Coats CFL Number mean: 0.000190563 max: 0.48803
deltaT = 0.00085119
Time = 0.0223393

diagonal:  Solving for Sb, Initial residual = 0, Final residual = 0, No Iterations 0
Saturation b:  Min(Sb) = 1.1e-06 Max(Sb) = 0.903778
DICPCG:  Solving for p, Initial residual = 0.00516934, Final residual = 9.36652e-13, No Iterations 274
ExecutionTime = 1.375 s  ClockTime = 2 s

Coats CFL Number mean: 0.000232823 max: 0.624549
deltaT = 0.00085119
Time = 0.0231905

diagonal:  Solving for Sb, Initial residual = 0, Final residual = 0, No Iterations 0
Saturation b:  Min(Sb) = 1.1e-06 Max(Sb) = 0.904563
DICPCG:  Solving for p, Initial residual = 0.004951, Final residual = 9.91459e-13, No Iterations 281
ExecutionTime = 1.40625 s  ClockTime = 2 s

Coats CFL Number mean: 0.000258317 max: 0.731335
deltaT = 0.00085119
Time = 0.0240417

diagonal:  Solving for Sb, Initial residual = 0, Final residual = 0, No Iterations 0
Saturation b:  Min(Sb) = 1.1e-06 Max(Sb) = 0.90532
DICPCG:  Solving for p, Initial residual = 0.00443078, Final residual = 9.139e-13, No Iterations 281
ExecutionTime = 1.4375 s  ClockTime = 2 s

Coats CFL Number mean: 0.000300022 max: 0.712333
deltaT = 0.00085119
Time = 0.0248929

diagonal:  Solving for Sb, Initial residual = 0, Final residual = 0, No Iterations 0
Saturation b:  Min(Sb) = 1.1e-06 Max(Sb) = 0.906051
DICPCG:  Solving for p, Initial residual = 0.00376912, Final residual = 9.11642e-13, No Iterations 275
ExecutionTime = 1.46875 s  ClockTime = 2 s

Coats CFL Number mean: 0.000336189 max: 0.888638
deltaT = 0.000638393
Time = 0.0255313

diagonal:  Solving for Sb, Initial residual = 0, Final residual = 0, No Iterations 0
Saturation b:  Min(Sb) = 1.1e-06 Max(Sb) = 0.906581
DICPCG:  Solving for p, Initial residual = 0.00264346, Final residual = 9.17382e-13, No Iterations 280
ExecutionTime = 1.5 s  ClockTime = 2 s

Coats CFL Number mean: 0.000249114 max: 0.663207
deltaT = 0.000638393
Time = 0.0261696

diagonal:  Solving for Sb, Initial residual = 0, Final residual = 0, No Iterations 0
Saturation b:  Min(Sb) = 1.1e-06 Max(Sb) = 0.907098
DICPCG:  Solving for p, Initial residual = 0.00281692, Final residual = 7.94055e-13, No Iterations 281
ExecutionTime = 1.51562 s  ClockTime = 2 s

Coats CFL Number mean: 0.000237533 max: 0.593481
deltaT = 0.000638393
Time = 0.026808

diagonal:  Solving for Sb, Initial residual = 0, Final residual = 0, No Iterations 0
Saturation b:  Min(Sb) = 1.1e-06 Max(Sb) = 0.907602
DICPCG:  Solving for p, Initial residual = 0.00297621, Final residual = 8.18945e-13, No Iterations 281
ExecutionTime = 1.54688 s  ClockTime = 2 s

Coats CFL Number mean: 0.00022451 max: 0.521823
deltaT = 0.000638393
Time = 0.0274464

diagonal:  Solving for Sb, Initial residual = 0, Final residual = 0, No Iterations 0
Saturation b:  Min(Sb) = 1.1e-06 Max(Sb) = 0.908094
DICPCG:  Solving for p, Initial residual = 0.0031526, Final residual = 7.81867e-13, No Iterations 281
ExecutionTime = 1.57812 s  ClockTime = 2 s

Coats CFL Number mean: 0.00021279 max: 0.462066
deltaT = 0.000638393
Time = 0.0280848

diagonal:  Solving for Sb, Initial residual = 0, Final residual = 0, No Iterations 0
Saturation b:  Min(Sb) = 1.1e-06 Max(Sb) = 0.908575
DICPCG:  Solving for p, Initial residual = 0.00331629, Final residual = 9.99871e-13, No Iterations 280
ExecutionTime = 1.625 s  ClockTime = 2 s

Coats CFL Number mean: 0.000204029 max: 0.414159
deltaT = 0.000638393
Time = 0.0287232

diagonal:  Solving for Sb, Initial residual = 0, Final residual = 0, No Iterations 0
Saturation b:  Min(Sb) = 1.1e-06 Max(Sb) = 0.909045
DICPCG:  Solving for p, Initial residual = 0.00347029, Final residual = 9.98326e-13, No Iterations 279
ExecutionTime = 1.65625 s  ClockTime = 2 s

Coats CFL Number mean: 0.000200295 max: 0.375601
deltaT = 0.000638393
Time = 0.0293616

diagonal:  Solving for Sb, Initial residual = 0, Final residual = 0, No Iterations 0
Saturation b:  Min(Sb) = 1.1e-06 Max(Sb) = 0.909505
DICPCG:  Solving for p, Initial residual = 0.0035878, Final residual = 8.56152e-13, No Iterations 278
ExecutionTime = 1.6875 s  ClockTime = 2 s

Coats CFL Number mean: 0.000204407 max: 0.343804
deltaT = 0.000638393
Time = 0.03

diagonal:  Solving for Sb, Initial residual = 0, Final residual = 0, No Iterations 0
Saturation b:  Min(Sb) = 1.1e-06 Max(Sb) = 0.909954
DICPCG:  Solving for p, Initial residual = 0.00359212, Final residual = 9.13996e-13, No Iterations 271
ExecutionTime = 1.76562 s  ClockTime = 2 s

Coats CFL Number mean: 0.000218025 max: 0.352478
deltaT = 0.000714286
Time = 0.0307143

diagonal:  Solving for Sb, Initial residual = 0, Final residual = 0, No Iterations 0
Saturation b:  Min(Sb) = 1.1e-06 Max(Sb) = 0.910446
DICPCG:  Solving for p, Initial residual = 0.00378987, Final residual = 8.4176e-13, No Iterations 279
ExecutionTime = 1.85938 s  ClockTime = 3 s

Coats CFL Number mean: 0.000272008 max: 0.562768
deltaT = 0.00077381
Time = 0.0314881

diagonal:  Solving for Sb, Initial residual = 0, Final residual = 0, No Iterations 0
Saturation b:  Min(Sb) = 1.1e-06 Max(Sb) = 0.910966
DICPCG:  Solving for p, Initial residual = 0.00361293, Final residual = 9.24881e-13, No Iterations 280
ExecutionTime = 1.90625 s  ClockTime = 3 s

Coats CFL Number mean: 0.000336385 max: 0.680718
deltaT = 0.00085119
Time = 0.0323393

diagonal:  Solving for Sb, Initial residual = 0, Final residual = 0, No Iterations 0
Saturation b:  Min(Sb) = 1.1e-06 Max(Sb) = 0.911524
DICPCG:  Solving for p, Initial residual = 0.00329989, Final residual = 9.80924e-13, No Iterations 280
ExecutionTime = 1.95312 s  ClockTime = 3 s

Coats CFL Number mean: 0.000399021 max: 0.888748
deltaT = 0.000696429
Time = 0.0330357

diagonal:  Solving for Sb, Initial residual = 0, Final residual = 0, No Iterations 0
Saturation b:  Min(Sb) = 1.1e-06 Max(Sb) = 0.911968
DICPCG:  Solving for p, Initial residual = 0.00258011, Final residual = 8.99836e-13, No Iterations 278
ExecutionTime = 2 s  ClockTime = 3 s

Coats CFL Number mean: 0.0003263 max: 0.674571
deltaT = 0.00077381
Time = 0.0338095

diagonal:  Solving for Sb, Initial residual = 0, Final residual = 0, No Iterations 0
Saturation b:  Min(Sb) = 1.1e-06 Max(Sb) = 0.912451
DICPCG:  Solving for p, Initial residual = 0.00289733, Final residual = 7.54914e-13, No Iterations 281
ExecutionTime = 2.04688 s  ClockTime = 3 s

Coats CFL Number mean: 0.000350364 max: 0.648258
deltaT = 0.00077381
Time = 0.0345833

diagonal:  Solving for Sb, Initial residual = 0, Final residual = 0, No Iterations 0
Saturation b:  Min(Sb) = 1.1e-06 Max(Sb) = 0.912922
DICPCG:  Solving for p, Initial residual = 0.00318772, Final residual = 9.87963e-13, No Iterations 280
ExecutionTime = 2.09375 s  ClockTime = 3 s

Coats CFL Number mean: 0.000332262 max: 0.56251
deltaT = 0.00077381
Time = 0.0353571

diagonal:  Solving for Sb, Initial residual = 0, Final residual = 0, No Iterations 0
Saturation b:  Min(Sb) = 1.1e-06 Max(Sb) = 0.913382
DICPCG:  Solving for p, Initial residual = 0.00348319, Final residual = 8.88272e-13, No Iterations 280
ExecutionTime = 2.14062 s  ClockTime = 3 s

Coats CFL Number mean: 0.000314137 max: 0.495993
deltaT = 0.00077381
Time = 0.036131

diagonal:  Solving for Sb, Initial residual = 0, Final residual = 0, No Iterations 0
Saturation b:  Min(Sb) = 1.1e-06 Max(Sb) = 0.913831
DICPCG:  Solving for p, Initial residual = 0.00375413, Final residual = 9.04472e-13, No Iterations 278
ExecutionTime = 2.1875 s  ClockTime = 3 s

Coats CFL Number mean: 0.000300964 max: 0.44509
deltaT = 0.00077381
Time = 0.0369048

diagonal:  Solving for Sb, Initial residual = 0, Final residual = 0, No Iterations 0
Saturation b:  Min(Sb) = 1.1e-06 Max(Sb) = 0.914271
DICPCG:  Solving for p, Initial residual = 0.00397471, Final residual = 8.83158e-13, No Iterations 273
ExecutionTime = 2.23438 s  ClockTime = 3 s

Coats CFL Number mean: 0.000299922 max: 0.412208
deltaT = 0.00077381
Time = 0.0376786

diagonal:  Solving for Sb, Initial residual = 0, Final residual = 0, No Iterations 0
Saturation b:  Min(Sb) = 1.1e-06 Max(Sb) = 0.914701
DICPCG:  Solving for p, Initial residual = 0.00406157, Final residual = 7.65167e-13, No Iterations 280
ExecutionTime = 2.28125 s  ClockTime = 3 s

Coats CFL Number mean: 0.000321357 max: 0.399323
deltaT = 0.00077381
Time = 0.0384524

diagonal:  Solving for Sb, Initial residual = 0, Final residual = 0, No Iterations 0
Saturation b:  Min(Sb) = 1.1e-06 Max(Sb) = 0.915121
DICPCG:  Solving for p, Initial residual = 0.00386281, Final residual = 9.0178e-13, No Iterations 281
ExecutionTime = 2.32812 s  ClockTime = 3 s

Coats CFL Number mean: 0.000360401 max: 0.62761
deltaT = 0.00077381
Time = 0.0392262

diagonal:  Solving for Sb, Initial residual = 0, Final residual = 0, No Iterations 0
Saturation b:  Min(Sb) = 1.1e-06 Max(Sb) = 0.915532
DICPCG:  Solving for p, Initial residual = 0.00335245, Final residual = 9.78674e-13, No Iterations 280
ExecutionTime = 2.375 s  ClockTime = 3 s

Coats CFL Number mean: 0.000380131 max: 0.803738
deltaT = 0.000386905
Time = 0.0396131

diagonal:  Solving for Sb, Initial residual = 0, Final residual = 0, No Iterations 0
Saturation b:  Min(Sb) = 1.1e-06 Max(Sb) = 0.915734
DICPCG:  Solving for p, Initial residual = 0.00172099, Final residual = 9.1945e-13, No Iterations 274
ExecutionTime = 2.40625 s  ClockTime = 3 s

Coats CFL Number mean: 0.000190262 max: 0.400166
deltaT = 0.000386905
Time = 0.04

diagonal:  Solving for Sb, Initial residual = 0, Final residual = 0, No Iterations 0
Saturation b:  Min(Sb) = 1.1e-06 Max(Sb) = 0.915933
DICPCG:  Solving for p, Initial residual = 0.00175702, Final residual = 8.30513e-13, No Iterations 276
ExecutionTime = 2.5 s  ClockTime = 3 s

Coats CFL Number mean: 0.000189719 max: 0.385196
deltaT = 0.000454545
Time = 0.0404545

diagonal:  Solving for Sb, Initial residual = 0, Final residual = 0, No Iterations 0
Saturation b:  Min(Sb) = 1.1e-06 Max(Sb) = 0.916165
DICPCG:  Solving for p, Initial residual = 0.00207254, Final residual = 8.59182e-13, No Iterations 277
ExecutionTime = 2.60938 s  ClockTime = 4 s

Coats CFL Number mean: 0.000222379 max: 0.42388
deltaT = 0.000530303
Time = 0.0409848

diagonal:  Solving for Sb, Initial residual = 0, Final residual = 0, No Iterations 0
Saturation b:  Min(Sb) = 1.1e-06 Max(Sb) = 0.916432
DICPCG:  Solving for p, Initial residual = 0.00239795, Final residual = 9.44192e-13, No Iterations 278
ExecutionTime = 2.67188 s  ClockTime = 4 s

Coats CFL Number mean: 0.000259942 max: 0.453898
deltaT = 0.00060101
Time = 0.0415859

diagonal:  Solving for Sb, Initial residual = 0, Final residual = 0, No Iterations 0
Saturation b:  Min(Sb) = 1.1e-06 Max(Sb) = 0.916731
DICPCG:  Solving for p, Initial residual = 0.00267925, Final residual = 7.70296e-13, No Iterations 281
ExecutionTime = 2.73438 s  ClockTime = 4 s

Coats CFL Number mean: 0.000295896 max: 0.467141
deltaT = 0.000647242
Time = 0.0422331

diagonal:  Solving for Sb, Initial residual = 0, Final residual = 0, No Iterations 0
Saturation b:  Min(Sb) = 1.1e-06 Max(Sb) = 0.917047
DICPCG:  Solving for p, Initial residual = 0.0028304, Final residual = 8.58818e-13, No Iterations 281
ExecutionTime = 2.79688 s  ClockTime = 4 s

Coats CFL Number mean: 0.000318298 max: 0.456747
deltaT = 0.000706082
Time = 0.0429392

diagonal:  Solving for Sb, Initial residual = 0, Final residual = 0, No Iterations 0
Saturation b:  Min(Sb) = 1.1e-06 Max(Sb) = 0.917387
DICPCG:  Solving for p, Initial residual = 0.00311667, Final residual = 9.15821e-13, No Iterations 281
ExecutionTime = 2.85938 s  ClockTime = 4 s

Coats CFL Number mean: 0.000343855 max: 0.491196
deltaT = 0.000784535
Time = 0.0437237

diagonal:  Solving for Sb, Initial residual = 0, Final residual = 0, No Iterations 0
Saturation b:  Min(Sb) = 1.1e-06 Max(Sb) = 0.917758
DICPCG:  Solving for p, Initial residual = 0.00353964, Final residual = 9.56054e-13, No Iterations 281
ExecutionTime = 2.9375 s  ClockTime = 4 s

Coats CFL Number mean: 0.000378757 max: 0.530707
deltaT = 0.000896612
Time = 0.0446203

diagonal:  Solving for Sb, Initial residual = 0, Final residual = 0, No Iterations 0
Saturation b:  Min(Sb) = 1.1e-06 Max(Sb) = 0.918173
DICPCG:  Solving for p, Initial residual = 0.00403924, Final residual = 8.50739e-13, No Iterations 281
ExecutionTime = 3 s  ClockTime = 4 s

Coats CFL Number mean: 0.000442387 max: 0.562963
deltaT = 0.000896612
Time = 0.0455169

diagonal:  Solving for Sb, Initial residual = 0, Final residual = 0, No Iterations 0
Saturation b:  Min(Sb) = 1.1e-06 Max(Sb) = 0.918579
DICPCG:  Solving for p, Initial residual = 0.0039224, Final residual = 8.59761e-13, No Iterations 280
ExecutionTime = 3.04688 s  ClockTime = 4 s

Coats CFL Number mean: 0.000470974 max: 0.680473
deltaT = 0.000896612
Time = 0.0464136

diagonal:  Solving for Sb, Initial residual = 0, Final residual = 0, No Iterations 0
Saturation b:  Min(Sb) = 1.1e-06 Max(Sb) = 0.918977
DICPCG:  Solving for p, Initial residual = 0.00360018, Final residual = 9.83911e-13, No Iterations 278
ExecutionTime = 3.10938 s  ClockTime = 4 s

Coats CFL Number mean: 0.000497354 max: 0.829865
deltaT = 0.000717289
Time = 0.0471308

diagonal:  Solving for Sb, Initial residual = 0, Final residual = 0, No Iterations 0
Saturation b:  Min(Sb) = 1.1e-06 Max(Sb) = 0.919288
DICPCG:  Solving for p, Initial residual = 0.00271185, Final residual = 9.02654e-13, No Iterations 272
ExecutionTime = 3.15625 s  ClockTime = 4 s

Coats CFL Number mean: 0.000410704 max: 0.642316
deltaT = 0.000717289
Time = 0.0478481

diagonal:  Solving for Sb, Initial residual = 0, Final residual = 0, No Iterations 0
Saturation b:  Min(Sb) = 1.1e-06 Max(Sb) = 0.919595
DICPCG:  Solving for p, Initial residual = 0.00258159, Final residual = 9.07358e-13, No Iterations 275
ExecutionTime = 3.20312 s  ClockTime = 4 s

Coats CFL Number mean: 0.000416551 max: 0.600879
deltaT = 0.000717289
Time = 0.0485654

diagonal:  Solving for Sb, Initial residual = 0, Final residual = 0, No Iterations 0
Saturation b:  Min(Sb) = 1.1e-06 Max(Sb) = 0.919896
DICPCG:  Solving for p, Initial residual = 0.00253812, Final residual = 8.31642e-13, No Iterations 275
ExecutionTime = 3.25 s  ClockTime = 4 s

Coats CFL Number mean: 0.000418336 max: 0.592497
deltaT = 0.000717289
Time = 0.0492827

diagonal:  Solving for Sb, Initial residual = 0, Final residual = 0, No Iterations 0
Saturation b:  Min(Sb) = 1.1e-06 Max(Sb) = 0.920192
DICPCG:  Solving for p, Initial residual = 0.00253411, Final residual = 9.48874e-13, No Iterations 274
ExecutionTime = 3.29688 s  ClockTime = 4 s

Coats CFL Number mean: 0.0004212 max: 0.545098
deltaT = 0.000717289
Time = 0.05

diagonal:  Solving for Sb, Initial residual = 0, Final residual = 0, No Iterations 0
Saturation b:  Min(Sb) = 1.1e-06 Max(Sb) = 0.920484
DICPCG:  Solving for p, Initial residual = 0.00253413, Final residual = 9.80394e-13, No Iterations 279
ExecutionTime = 3.42188 s  ClockTime = 4 s

Coats CFL Number mean: 0.000422027 max: 0.493053
deltaT = 0.000769231
Time = 0.0507692

diagonal:  Solving for Sb, Initial residual = 0, Final residual = 0, No Iterations 0
Saturation b:  Min(Sb) = 1.1e-06 Max(Sb) = 0.920792
DICPCG:  Solving for p, Initial residual = 0.00270704, Final residual = 9.87379e-13, No Iterations 276
ExecutionTime = 3.54688 s  ClockTime = 5 s

Coats CFL Number mean: 0.000445428 max: 0.575731
deltaT = 0.000839161
Time = 0.0516084

diagonal:  Solving for Sb, Initial residual = 0, Final residual = 0, No Iterations 0
Saturation b:  Min(Sb) = 1.1e-06 Max(Sb) = 0.921122
DICPCG:  Solving for p, Initial residual = 0.00314779, Final residual = 7.43632e-13, No Iterations 281
ExecutionTime = 3.59375 s  ClockTime = 5 s

Coats CFL Number mean: 0.000471327 max: 0.614405
deltaT = 0.000932401
Time = 0.0525408

diagonal:  Solving for Sb, Initial residual = 0, Final residual = 0, No Iterations 0
Saturation b:  Min(Sb) = 1.1e-06 Max(Sb) = 0.921482
DICPCG:  Solving for p, Initial residual = 0.00367869, Final residual = 7.43683e-13, No Iterations 281
ExecutionTime = 3.64062 s  ClockTime = 5 s

Coats CFL Number mean: 0.000510255 max: 0.621476
deltaT = 0.000932401
Time = 0.0534732

diagonal:  Solving for Sb, Initial residual = 0, Final residual = 0, No Iterations 0
Saturation b:  Min(Sb) = 1.1e-06 Max(Sb) = 0.921835
DICPCG:  Solving for p, Initial residual = 0.00384163, Final residual = 9.94279e-13, No Iterations 278
ExecutionTime = 3.6875 s  ClockTime = 5 s

Coats CFL Number mean: 0.000512131 max: 0.562156
deltaT = 0.000932401
Time = 0.0544056

diagonal:  Solving for Sb, Initial residual = 0, Final residual = 0, No Iterations 0
Saturation b:  Min(Sb) = 1.1e-06 Max(Sb) = 0.922182
DICPCG:  Solving for p, Initial residual = 0.00387146, Final residual = 8.39336e-13, No Iterations 276
ExecutionTime = 3.73438 s  ClockTime = 5 s

Coats CFL Number mean: 0.000527505 max: 0.595215
deltaT = 0.000932401
Time = 0.055338

diagonal:  Solving for Sb, Initial residual = 0, Final residual = 0, No Iterations 0
Saturation b:  Min(Sb) = 1.1e-06 Max(Sb) = 0.922521
DICPCG:  Solving for p, Initial residual = 0.00376491, Final residual = 7.82325e-13, No Iterations 273
ExecutionTime = 3.76562 s  ClockTime = 5 s

Coats CFL Number mean: 0.000547781 max: 0.708498
deltaT = 0.000932401
Time = 0.0562704

diagonal:  Solving for Sb, Initial residual = 0, Final residual = 0, No Iterations 0
Saturation b:  Min(Sb) = 1.1e-06 Max(Sb) = 0.922855
DICPCG:  Solving for p, Initial residual = 0.00362474, Final residual = 8.68808e-13, No Iterations 280
ExecutionTime = 3.8125 s  ClockTime = 5 s

Coats CFL Number mean: 0.000579063 max: 0.696633
deltaT = 0.000932401
Time = 0.0572028

diagonal:  Solving for Sb, Initial residual = 0, Final residual = 0, No Iterations 0
Saturation b:  Min(Sb) = 1.1e-06 Max(Sb) = 0.923182
DICPCG:  Solving for p, Initial residual = 0.00340159, Final residual = 9.67841e-13, No Iterations 280
ExecutionTime = 3.85938 s  ClockTime = 5 s

Coats CFL Number mean: 0.00061139 max: 0.747843
deltaT = 0.000932401
Time = 0.0581352

diagonal:  Solving for Sb, Initial residual = 0, Final residual = 0, No Iterations 0
Saturation b:  Min(Sb) = 1.1e-06 Max(Sb) = 0.923503
DICPCG:  Solving for p, Initial residual = 0.00313553, Final residual = 9.27918e-13, No Iterations 276
ExecutionTime = 3.89062 s  ClockTime = 5 s

Coats CFL Number mean: 0.000622267 max: 0.743171
deltaT = 0.000932401
Time = 0.0590676

diagonal:  Solving for Sb, Initial residual = 0, Final residual = 0, No Iterations 0
Saturation b:  Min(Sb) = 1.1e-06 Max(Sb) = 0.923818
DICPCG:  Solving for p, Initial residual = 0.00317039, Final residual = 8.3602e-13, No Iterations 282
ExecutionTime = 3.92188 s  ClockTime = 5 s

Coats CFL Number mean: 0.00060878 max: 0.739615
deltaT = 0.000932401
Time = 0.06

diagonal:  Solving for Sb, Initial residual = 0, Final residual = 0, No Iterations 0
Saturation b:  Min(Sb) = 1.1e-06 Max(Sb) = 0.924128
DICPCG:  Solving for p, Initial residual = 0.00341257, Final residual = 9.39488e-13, No Iterations 282
ExecutionTime = 4.03125 s  ClockTime = 5 s

Coats CFL Number mean: 0.000589327 max: 0.66574
deltaT = 0.001
Time = 0.061

diagonal:  Solving for Sb, Initial residual = 0, Final residual = 0, No Iterations 0
Saturation b:  Min(Sb) = 1.1e-06 Max(Sb) = 0.924455
DICPCG:  Solving for p, Initial residual = 0.00384448, Final residual = 8.31103e-13, No Iterations 283
ExecutionTime = 4.15625 s  ClockTime = 5 s

Coats CFL Number mean: 0.000614894 max: 0.631833
deltaT = 0.001
Time = 0.062

diagonal:  Solving for Sb, Initial residual = 0, Final residual = 0, No Iterations 0
Saturation b:  Min(Sb) = 1.1e-06 Max(Sb) = 0.924775
DICPCG:  Solving for p, Initial residual = 0.00401975, Final residual = 8.16634e-13, No Iterations 283
ExecutionTime = 4.21875 s  ClockTime = 5 s

Coats CFL Number mean: 0.000609398 max: 0.568961
deltaT = 0.001
Time = 0.063

diagonal:  Solving for Sb, Initial residual = 0, Final residual = 0, No Iterations 0
Saturation b:  Min(Sb) = 1.1e-06 Max(Sb) = 0.92509
DICPCG:  Solving for p, Initial residual = 0.00409409, Final residual = 9.41689e-13, No Iterations 282
ExecutionTime = 4.25 s  ClockTime = 5 s

Coats CFL Number mean: 0.000620969 max: 0.521932
deltaT = 0.001
Time = 0.064

diagonal:  Solving for Sb, Initial residual = 0, Final residual = 0, No Iterations 0
Saturation b:  Min(Sb) = 1.1e-06 Max(Sb) = 0.925399
DICPCG:  Solving for p, Initial residual = 0.004012, Final residual = 9.0756e-13, No Iterations 281
ExecutionTime = 4.3125 s  ClockTime = 5 s

Coats CFL Number mean: 0.000645639 max: 0.650833
deltaT = 0.001
Time = 0.065

diagonal:  Solving for Sb, Initial residual = 0, Final residual = 0, No Iterations 0
Saturation b:  Min(Sb) = 1.1e-06 Max(Sb) = 0.925702
DICPCG:  Solving for p, Initial residual = 0.00378958, Final residual = 8.93253e-13, No Iterations 281
ExecutionTime = 4.34375 s  ClockTime = 5 s

Coats CFL Number mean: 0.000679656 max: 0.745908
deltaT = 0.001
Time = 0.066

diagonal:  Solving for Sb, Initial residual = 0, Final residual = 0, No Iterations 0
Saturation b:  Min(Sb) = 1.1e-06 Max(Sb) = 0.926
DICPCG:  Solving for p, Initial residual = 0.00347715, Final residual = 8.17602e-13, No Iterations 276
ExecutionTime = 4.39062 s  ClockTime = 5 s

Coats CFL Number mean: 0.000729111 max: 0.72247
deltaT = 0.001
Time = 0.067

diagonal:  Solving for Sb, Initial residual = 0, Final residual = 0, No Iterations 0
Saturation b:  Min(Sb) = 1.1e-06 Max(Sb) = 0.926294
DICPCG:  Solving for p, Initial residual = 0.0029549, Final residual = 8.07944e-13, No Iterations 282
ExecutionTime = 4.4375 s  ClockTime = 5 s

Coats CFL Number mean: 0.000756923 max: 0.788099
deltaT = 0.00075
Time = 0.06775

diagonal:  Solving for Sb, Initial residual = 0, Final residual = 0, No Iterations 0
Saturation b:  Min(Sb) = 1.1e-06 Max(Sb) = 0.92651
DICPCG:  Solving for p, Initial residual = 0.00220255, Final residual = 8.97936e-13, No Iterations 276
ExecutionTime = 4.48438 s  ClockTime = 6 s

Coats CFL Number mean: 0.000564199 max: 0.560445
deltaT = 0.00075
Time = 0.0685

diagonal:  Solving for Sb, Initial residual = 0, Final residual = 0, No Iterations 0
Saturation b:  Min(Sb) = 1.1e-06 Max(Sb) = 0.926723
DICPCG:  Solving for p, Initial residual = 0.00231176, Final residual = 8.50509e-13, No Iterations 282
ExecutionTime = 4.51562 s  ClockTime = 6 s

Coats CFL Number mean: 0.000553762 max: 0.515924
deltaT = 0.00075
Time = 0.06925

diagonal:  Solving for Sb, Initial residual = 0, Final residual = 0, No Iterations 0
Saturation b:  Min(Sb) = 1.1e-06 Max(Sb) = 0.926934
DICPCG:  Solving for p, Initial residual = 0.00240948, Final residual = 8.32747e-13, No Iterations 282
ExecutionTime = 4.5625 s  ClockTime = 6 s

Coats CFL Number mean: 0.0005422 max: 0.481087
deltaT = 0.00075
Time = 0.07

diagonal:  Solving for Sb, Initial residual = 0, Final residual = 0, No Iterations 0
Saturation b:  Min(Sb) = 1.1e-06 Max(Sb) = 0.927142
DICPCG:  Solving for p, Initial residual = 0.00251723, Final residual = 7.90205e-13, No Iterations 282
ExecutionTime = 4.65625 s  ClockTime = 6 s

Coats CFL Number mean: 0.000531599 max: 0.444024
deltaT = 0.000833333
Time = 0.0708333

diagonal:  Solving for Sb, Initial residual = 0, Final residual = 0, No Iterations 0
Saturation b:  Min(Sb) = 1.1e-06 Max(Sb) = 0.92737
DICPCG:  Solving for p, Initial residual = 0.00288449, Final residual = 7.61199e-13, No Iterations 282
ExecutionTime = 4.70312 s  ClockTime = 6 s

Coats CFL Number mean: 0.000580139 max: 0.452248
deltaT = 0.000916667
Time = 0.07175

diagonal:  Solving for Sb, Initial residual = 0, Final residual = 0, No Iterations 0
Saturation b:  Min(Sb) = 1.1e-06 Max(Sb) = 0.927618
DICPCG:  Solving for p, Initial residual = 0.00327227, Final residual = 9.71387e-13, No Iterations 278
ExecutionTime = 4.75 s  ClockTime = 6 s

Coats CFL Number mean: 0.000633234 max: 0.457072
deltaT = 0.00103125
Time = 0.0727813

diagonal:  Solving for Sb, Initial residual = 0, Final residual = 0, No Iterations 0
Saturation b:  Min(Sb) = 1.1e-06 Max(Sb) = 0.927893
DICPCG:  Solving for p, Initial residual = 0.00373933, Final residual = 8.56169e-13, No Iterations 278
ExecutionTime = 4.79688 s  ClockTime = 6 s

Coats CFL Number mean: 0.000726954 max: 0.474565
deltaT = 0.00103125
Time = 0.0738125

diagonal:  Solving for Sb, Initial residual = 0, Final residual = 0, No Iterations 0
Saturation b:  Min(Sb) = 1.1e-06 Max(Sb) = 0.928163
DICPCG:  Solving for p, Initial residual = 0.00368846, Final residual = 9.69124e-13, No Iterations 274
ExecutionTime = 4.84375 s  ClockTime = 6 s

Coats CFL Number mean: 0.000759481 max: 0.690734
deltaT = 0.00103125
Time = 0.0748438

diagonal:  Solving for Sb, Initial residual = 0, Final residual = 0, No Iterations 0
Saturation b:  Min(Sb) = 1.1e-06 Max(Sb) = 0.928429
DICPCG:  Solving for p, Initial residual = 0.0034399, Final residual = 8.46931e-13, No Iterations 278
ExecutionTime = 4.89062 s  ClockTime = 6 s

Coats CFL Number mean: 0.000794544 max: 0.75676
deltaT = 0.000859375
Time = 0.0757031

diagonal:  Solving for Sb, Initial residual = 0, Final residual = 0, No Iterations 0
Saturation b:  Min(Sb) = 1.1e-06 Max(Sb) = 0.928647
DICPCG:  Solving for p, Initial residual = 0.00281987, Final residual = 8.44899e-13, No Iterations 275
ExecutionTime = 4.9375 s  ClockTime = 6 s

Coats CFL Number mean: 0.000685516 max: 0.607599
deltaT = 0.000859375
Time = 0.0765625

diagonal:  Solving for Sb, Initial residual = 0, Final residual = 0, No Iterations 0
Saturation b:  Min(Sb) = 1.1e-06 Max(Sb) = 0.928862
DICPCG:  Solving for p, Initial residual = 0.00265794, Final residual = 8.59465e-13, No Iterations 278
ExecutionTime = 4.96875 s  ClockTime = 6 s

Coats CFL Number mean: 0.000694205 max: 0.658364
deltaT = 0.000859375
Time = 0.0774219

diagonal:  Solving for Sb, Initial residual = 0, Final residual = 0, No Iterations 0
Saturation b:  Min(Sb) = 1.1e-06 Max(Sb) = 0.929075
DICPCG:  Solving for p, Initial residual = 0.00258763, Final residual = 9.04709e-13, No Iterations 282
ExecutionTime = 5.01562 s  ClockTime = 6 s

Coats CFL Number mean: 0.000685632 max: 0.63543
deltaT = 0.000859375
Time = 0.0782812

diagonal:  Solving for Sb, Initial residual = 0, Final residual = 0, No Iterations 0
Saturation b:  Min(Sb) = 1.1e-06 Max(Sb) = 0.929284
DICPCG:  Solving for p, Initial residual = 0.00273373, Final residual = 9.96406e-13, No Iterations 282
ExecutionTime = 5.04688 s  ClockTime = 6 s

Coats CFL Number mean: 0.000670948 max: 0.574437
deltaT = 0.000859375
Time = 0.0791406

diagonal:  Solving for Sb, Initial residual = 0, Final residual = 0, No Iterations 0
Saturation b:  Min(Sb) = 1.1e-06 Max(Sb) = 0.929492
DICPCG:  Solving for p, Initial residual = 0.00289771, Final residual = 7.71487e-13, No Iterations 283
ExecutionTime = 5.09375 s  ClockTime = 6 s

Coats CFL Number mean: 0.00065634 max: 0.519767
deltaT = 0.000859375
Time = 0.08

diagonal:  Solving for Sb, Initial residual = 0, Final residual = 0, No Iterations 0
Saturation b:  Min(Sb) = 1.1e-06 Max(Sb) = 0.929696
DICPCG:  Solving for p, Initial residual = 0.00306765, Final residual = 9.09074e-13, No Iterations 282
ExecutionTime = 5.17188 s  ClockTime = 6 s

Coats CFL Number mean: 0.000644089 max: 0.476735
deltaT = 0.000909091
Time = 0.0809091

diagonal:  Solving for Sb, Initial residual = 0, Final residual = 0, No Iterations 0
Saturation b:  Min(Sb) = 1.1e-06 Max(Sb) = 0.92991
DICPCG:  Solving for p, Initial residual = 0.00337817, Final residual = 9.35634e-13, No Iterations 282
ExecutionTime = 5.25 s  ClockTime = 6 s

Coats CFL Number mean: 0.000673707 max: 0.464211
deltaT = 0.0010101
Time = 0.0819192

diagonal:  Solving for Sb, Initial residual = 0, Final residual = 0, No Iterations 0
Saturation b:  Min(Sb) = 1.1e-06 Max(Sb) = 0.930144
DICPCG:  Solving for p, Initial residual = 0.00381773, Final residual = 8.36263e-13, No Iterations 283
ExecutionTime = 5.29688 s  ClockTime = 7 s

Coats CFL Number mean: 0.000755348 max: 0.477596
deltaT = 0.0011544
Time = 0.0830736

diagonal:  Solving for Sb, Initial residual = 0, Final residual = 0, No Iterations 0
Saturation b:  Min(Sb) = 1.1e-06 Max(Sb) = 0.930408
DICPCG:  Solving for p, Initial residual = 0.00429423, Final residual = 9.42719e-13, No Iterations 282
ExecutionTime = 5.34375 s  ClockTime = 7 s

Coats CFL Number mean: 0.00090255 max: 0.61902
deltaT = 0.0011544
Time = 0.084228

diagonal:  Solving for Sb, Initial residual = 0, Final residual = 0, No Iterations 0
Saturation b:  Min(Sb) = 1.1e-06 Max(Sb) = 0.930667
DICPCG:  Solving for p, Initial residual = 0.00408082, Final residual = 7.93329e-13, No Iterations 283
ExecutionTime = 5.39062 s  ClockTime = 7 s

Coats CFL Number mean: 0.00095138 max: 0.825402
deltaT = 0.000962001
Time = 0.08519

diagonal:  Solving for Sb, Initial residual = 0, Final residual = 0, No Iterations 0
Saturation b:  Min(Sb) = 1.1e-06 Max(Sb) = 0.93088
DICPCG:  Solving for p, Initial residual = 0.00331545, Final residual = 9.04228e-13, No Iterations 283
ExecutionTime = 5.4375 s  ClockTime = 7 s

Coats CFL Number mean: 0.000833855 max: 0.688782
deltaT = 0.000962001
Time = 0.086152

diagonal:  Solving for Sb, Initial residual = 0, Final residual = 0, No Iterations 0
Saturation b:  Min(Sb) = 1.1e-06 Max(Sb) = 0.93109
DICPCG:  Solving for p, Initial residual = 0.0030876, Final residual = 9.78527e-13, No Iterations 282
ExecutionTime = 5.46875 s  ClockTime = 7 s

Coats CFL Number mean: 0.000871945 max: 0.713199
deltaT = 0.000962001
Time = 0.087114

diagonal:  Solving for Sb, Initial residual = 0, Final residual = 0, No Iterations 0
Saturation b:  Min(Sb) = 1.1e-06 Max(Sb) = 0.931298
DICPCG:  Solving for p, Initial residual = 0.00276351, Final residual = 8.66508e-13, No Iterations 285
ExecutionTime = 5.51562 s  ClockTime = 7 s

Coats CFL Number mean: 0.000882384 max: 0.724278
deltaT = 0.000962001
Time = 0.088076

diagonal:  Solving for Sb, Initial residual = 0, Final residual = 0, No Iterations 0
Saturation b:  Min(Sb) = 1.1e-06 Max(Sb) = 0.931503
DICPCG:  Solving for p, Initial residual = 0.00280528, Final residual = 8.40283e-13, No Iterations 285
ExecutionTime = 5.54688 s  ClockTime = 7 s

Coats CFL Number mean: 0.00087242 max: 0.651394
deltaT = 0.000962001
Time = 0.089038

diagonal:  Solving for Sb, Initial residual = 0, Final residual = 0, No Iterations 0
Saturation b:  Min(Sb) = 1.1e-06 Max(Sb) = 0.931705
DICPCG:  Solving for p, Initial residual = 0.00290356, Final residual = 9.82346e-13, No Iterations 284
ExecutionTime = 5.59375 s  ClockTime = 7 s

Coats CFL Number mean: 0.000854891 max: 0.580745
deltaT = 0.000962001
Time = 0.09

diagonal:  Solving for Sb, Initial residual = 0, Final residual = 0, No Iterations 0
Saturation b:  Min(Sb) = 1.1e-06 Max(Sb) = 0.931904
DICPCG:  Solving for p, Initial residual = 0.00301535, Final residual = 9.52148e-13, No Iterations 284
ExecutionTime = 5.70312 s  ClockTime = 7 s

Coats CFL Number mean: 0.000837489 max: 0.527199
deltaT = 0.001
Time = 0.091

diagonal:  Solving for Sb, Initial residual = 0, Final residual = 0, No Iterations 0
Saturation b:  Min(Sb) = 1.1e-06 Max(Sb) = 0.932109
DICPCG:  Solving for p, Initial residual = 0.00325366, Final residual = 9.60184e-13, No Iterations 284
ExecutionTime = 5.79688 s  ClockTime = 7 s

Coats CFL Number mean: 0.000859781 max: 0.501987
deltaT = 0.001125
Time = 0.092125

diagonal:  Solving for Sb, Initial residual = 0, Final residual = 0, No Iterations 0
Saturation b:  Min(Sb) = 1.1e-06 Max(Sb) = 0.932337
DICPCG:  Solving for p, Initial residual = 0.00370517, Final residual = 9.01885e-13, No Iterations 283
ExecutionTime = 5.84375 s  ClockTime = 7 s

Coats CFL Number mean: 0.000979671 max: 0.521467
deltaT = 0.001125
Time = 0.09325

diagonal:  Solving for Sb, Initial residual = 0, Final residual = 0, No Iterations 0
Saturation b:  Min(Sb) = 1.1e-06 Max(Sb) = 0.932561
DICPCG:  Solving for p, Initial residual = 0.0036375, Final residual = 9.17346e-13, No Iterations 285
ExecutionTime = 5.90625 s  ClockTime = 7 s

Coats CFL Number mean: 0.00102186 max: 0.686205
deltaT = 0.001125
Time = 0.094375

diagonal:  Solving for Sb, Initial residual = 0, Final residual = 0, No Iterations 0
Saturation b:  Min(Sb) = 1.1e-06 Max(Sb) = 0.932782
DICPCG:  Solving for p, Initial residual = 0.00338011, Final residual = 9.16392e-13, No Iterations 285
ExecutionTime = 5.95312 s  ClockTime = 7 s

Coats CFL Number mean: 0.0010709 max: 0.821183
deltaT = 0.0009375
Time = 0.0953125

diagonal:  Solving for Sb, Initial residual = 0, Final residual = 0, No Iterations 0
Saturation b:  Min(Sb) = 1.1e-06 Max(Sb) = 0.932964
DICPCG:  Solving for p, Initial residual = 0.00273149, Final residual = 8.17513e-13, No Iterations 284
ExecutionTime = 6 s  ClockTime = 7 s

Coats CFL Number mean: 0.000928419 max: 0.665409
deltaT = 0.0009375
Time = 0.09625

diagonal:  Solving for Sb, Initial residual = 0, Final residual = 0, No Iterations 0
Saturation b:  Min(Sb) = 1.1e-06 Max(Sb) = 0.933143
DICPCG:  Solving for p, Initial residual = 0.00255084, Final residual = 9.82649e-13, No Iterations 280
ExecutionTime = 6.04688 s  ClockTime = 7 s

Coats CFL Number mean: 0.000942796 max: 0.716551
deltaT = 0.0009375
Time = 0.0971875

diagonal:  Solving for Sb, Initial residual = 0, Final residual = 0, No Iterations 0
Saturation b:  Min(Sb) = 1.1e-06 Max(Sb) = 0.933321
DICPCG:  Solving for p, Initial residual = 0.0024714, Final residual = 7.58787e-13, No Iterations 285
ExecutionTime = 6.07812 s  ClockTime = 7 s

Coats CFL Number mean: 0.000924948 max: 0.693494
deltaT = 0.0009375
Time = 0.098125

diagonal:  Solving for Sb, Initial residual = 0, Final residual = 0, No Iterations 0
Saturation b:  Min(Sb) = 1.1e-06 Max(Sb) = 0.933496
DICPCG:  Solving for p, Initial residual = 0.00268573, Final residual = 8.61996e-13, No Iterations 285
ExecutionTime = 6.125 s  ClockTime = 7 s

Coats CFL Number mean: 0.000894829 max: 0.619114
deltaT = 0.0009375
Time = 0.0990625

diagonal:  Solving for Sb, Initial residual = 0, Final residual = 0, No Iterations 0
Saturation b:  Min(Sb) = 1.1e-06 Max(Sb) = 0.93367
DICPCG:  Solving for p, Initial residual = 0.00289678, Final residual = 8.1185e-13, No Iterations 285
ExecutionTime = 6.17188 s  ClockTime = 7 s

Coats CFL Number mean: 0.000866493 max: 0.555647
deltaT = 0.0009375
Time = 0.1

diagonal:  Solving for Sb, Initial residual = 0, Final residual = 0, No Iterations 0
Saturation b:  Min(Sb) = 1.1e-06 Max(Sb) = 0.933841
DICPCG:  Solving for p, Initial residual = 0.00308336, Final residual = 9.29064e-13, No Iterations 284
ExecutionTime = 6.28125 s  ClockTime = 8 s

Coats CFL Number mean: 0.00084579 max: 0.505935
deltaT = 0.001
Time = 0.101

diagonal:  Solving for Sb, Initial residual = 0, Final residual = 0, No Iterations 0
Saturation b:  Min(Sb) = 1.1e-06 Max(Sb) = 0.934022
DICPCG:  Solving for p, Initial residual = 0.00342264, Final residual = 8.47428e-13, No Iterations 284
ExecutionTime = 6.375 s  ClockTime = 8 s

Coats CFL Number mean: 0.000893625 max: 0.495285
deltaT = 0.001125
Time = 0.102125

diagonal:  Solving for Sb, Initial residual = 0, Final residual = 0, No Iterations 0
Saturation b:  Min(Sb) = 1.1e-06 Max(Sb) = 0.934223
DICPCG:  Solving for p, Initial residual = 0.00386867, Final residual = 9.34208e-13, No Iterations 280
ExecutionTime = 6.42188 s  ClockTime = 8 s

Coats CFL Number mean: 0.0010272 max: 0.51597
deltaT = 0.001125
Time = 0.10325

diagonal:  Solving for Sb, Initial residual = 0, Final residual = 0, No Iterations 0
Saturation b:  Min(Sb) = 1.1e-06 Max(Sb) = 0.934422
DICPCG:  Solving for p, Initial residual = 0.00378688, Final residual = 7.93022e-13, No Iterations 284
ExecutionTime = 6.46875 s  ClockTime = 8 s

Coats CFL Number mean: 0.00107765 max: 0.707341
deltaT = 0.001125
Time = 0.104375

diagonal:  Solving for Sb, Initial residual = 0, Final residual = 0, No Iterations 0
Saturation b:  Min(Sb) = 1.1e-06 Max(Sb) = 0.934618
DICPCG:  Solving for p, Initial residual = 0.00351481, Final residual = 8.24655e-13, No Iterations 284
ExecutionTime = 6.5 s  ClockTime = 8 s

Coats CFL Number mean: 0.00112701 max: 0.818403
deltaT = 0.0009375
Time = 0.105313

diagonal:  Solving for Sb, Initial residual = 0, Final residual = 0, No Iterations 0
Saturation b:  Min(Sb) = 1.1e-06 Max(Sb) = 0.934779
DICPCG:  Solving for p, Initial residual = 0.00290155, Final residual = 9.09479e-13, No Iterations 281
ExecutionTime = 6.54688 s  ClockTime = 8 s

Coats CFL Number mean: 0.000970343 max: 0.657151
deltaT = 0.0009375
Time = 0.10625

diagonal:  Solving for Sb, Initial residual = 0, Final residual = 0, No Iterations 0
Saturation b:  Min(Sb) = 1.1e-06 Max(Sb) = 0.934939
DICPCG:  Solving for p, Initial residual = 0.00278801, Final residual = 8.93203e-13, No Iterations 283
ExecutionTime = 6.59375 s  ClockTime = 8 s

Coats CFL Number mean: 0.000981304 max: 0.718801
deltaT = 0.0009375
Time = 0.107187

diagonal:  Solving for Sb, Initial residual = 0, Final residual = 0, No Iterations 0
Saturation b:  Min(Sb) = 1.1e-06 Max(Sb) = 0.935097
DICPCG:  Solving for p, Initial residual = 0.00277044, Final residual = 7.70611e-13, No Iterations 284
ExecutionTime = 6.625 s  ClockTime = 8 s

Coats CFL Number mean: 0.000967135 max: 0.683889
deltaT = 0.0009375
Time = 0.108125

diagonal:  Solving for Sb, Initial residual = 0, Final residual = 0, No Iterations 0
Saturation b:  Min(Sb) = 1.1e-06 Max(Sb) = 0.935253
DICPCG:  Solving for p, Initial residual = 0.0029582, Final residual = 8.98745e-13, No Iterations 284
ExecutionTime = 6.67188 s  ClockTime = 8 s

Coats CFL Number mean: 0.000946047 max: 0.611538
deltaT = 0.0009375
Time = 0.109063

diagonal:  Solving for Sb, Initial residual = 0, Final residual = 0, No Iterations 0
Saturation b:  Min(Sb) = 1.1e-06 Max(Sb) = 0.935408
DICPCG:  Solving for p, Initial residual = 0.00310057, Final residual = 8.65715e-13, No Iterations 284
ExecutionTime = 6.71875 s  ClockTime = 8 s

Coats CFL Number mean: 0.000930317 max: 0.558147
deltaT = 0.0009375
Time = 0.11

diagonal:  Solving for Sb, Initial residual = 0, Final residual = 0, No Iterations 0
Saturation b:  Min(Sb) = 1.1e-06 Max(Sb) = 0.935561
DICPCG:  Solving for p, Initial residual = 0.00320552, Final residual = 8.8979e-13, No Iterations 284
ExecutionTime = 6.8125 s  ClockTime = 8 s

Coats CFL Number mean: 0.000924804 max: 0.509648
deltaT = 0.001
Time = 0.111

diagonal:  Solving for Sb, Initial residual = 0, Final residual = 0, No Iterations 0
Saturation b:  Min(Sb) = 1.1e-06 Max(Sb) = 0.935723
DICPCG:  Solving for p, Initial residual = 0.0034477, Final residual = 8.3364e-13, No Iterations 284
ExecutionTime = 6.95312 s  ClockTime = 8 s

Coats CFL Number mean: 0.000996398 max: 0.500251
deltaT = 0.001125
Time = 0.112125

diagonal:  Solving for Sb, Initial residual = 0, Final residual = 0, No Iterations 0
Saturation b:  Min(Sb) = 1.1e-06 Max(Sb) = 0.935903
DICPCG:  Solving for p, Initial residual = 0.00380151, Final residual = 8.70066e-13, No Iterations 283
ExecutionTime = 7 s  ClockTime = 8 s

Coats CFL Number mean: 0.00116437 max: 0.522632
deltaT = 0.001125
Time = 0.11325

diagonal:  Solving for Sb, Initial residual = 0, Final residual = 0, No Iterations 0
Saturation b:  Min(Sb) = 1.1e-06 Max(Sb) = 0.936081
DICPCG:  Solving for p, Initial residual = 0.00361727, Final residual = 9.64708e-13, No Iterations 281
ExecutionTime = 7.04688 s  ClockTime = 8 s

Coats CFL Number mean: 0.0012316 max: 0.742956
deltaT = 0.001125
Time = 0.114375

diagonal:  Solving for Sb, Initial residual = 0, Final residual = 0, No Iterations 0
Saturation b:  Min(Sb) = 1.1e-06 Max(Sb) = 0.936256
DICPCG:  Solving for p, Initial residual = 0.00322798, Final residual = 8.99837e-13, No Iterations 283
ExecutionTime = 7.09375 s  ClockTime = 8 s

Coats CFL Number mean: 0.00129418 max: 0.831708
deltaT = 0.0009375
Time = 0.115312

diagonal:  Solving for Sb, Initial residual = 0, Final residual = 0, No Iterations 0
Saturation b:  Min(Sb) = 1.1e-06 Max(Sb) = 0.936401
DICPCG:  Solving for p, Initial residual = 0.00257417, Final residual = 9.27506e-13, No Iterations 279
ExecutionTime = 7.14062 s  ClockTime = 8 s

Coats CFL Number mean: 0.00111443 max: 0.660037
deltaT = 0.0009375
Time = 0.11625

diagonal:  Solving for Sb, Initial residual = 0, Final residual = 0, No Iterations 0
Saturation b:  Min(Sb) = 1.1e-06 Max(Sb) = 0.936544
DICPCG:  Solving for p, Initial residual = 0.00239767, Final residual = 9.56251e-13, No Iterations 282
ExecutionTime = 7.17188 s  ClockTime = 9 s

Coats CFL Number mean: 0.00112548 max: 0.732298
deltaT = 0.0009375
Time = 0.117188

diagonal:  Solving for Sb, Initial residual = 0, Final residual = 0, No Iterations 0
Saturation b:  Min(Sb) = 1.1e-06 Max(Sb) = 0.936686
DICPCG:  Solving for p, Initial residual = 0.00237332, Final residual = 8.09669e-13, No Iterations 283
ExecutionTime = 7.21875 s  ClockTime = 9 s

Coats CFL Number mean: 0.0011111 max: 0.678415
deltaT = 0.0009375
Time = 0.118125

diagonal:  Solving for Sb, Initial residual = 0, Final residual = 0, No Iterations 0
Saturation b:  Min(Sb) = 1.1e-06 Max(Sb) = 0.936827
DICPCG:  Solving for p, Initial residual = 0.00250925, Final residual = 9.93161e-13, No Iterations 282
ExecutionTime = 7.26562 s  ClockTime = 9 s

Coats CFL Number mean: 0.00108979 max: 0.621786
deltaT = 0.0009375
Time = 0.119062

diagonal:  Solving for Sb, Initial residual = 0, Final residual = 0, No Iterations 0
Saturation b:  Min(Sb) = 1.1e-06 Max(Sb) = 0.936966
DICPCG:  Solving for p, Initial residual = 0.00264137, Final residual = 8.91286e-13, No Iterations 282
ExecutionTime = 7.29688 s  ClockTime = 9 s

Coats CFL Number mean: 0.00107178 max: 0.565007
deltaT = 0.0009375
Time = 0.12

diagonal:  Solving for Sb, Initial residual = 0, Final residual = 0, No Iterations 0
Saturation b:  Min(Sb) = 1.1e-06 Max(Sb) = 0.937104
DICPCG:  Solving for p, Initial residual = 0.00274755, Final residual = 8.29406e-13, No Iterations 281
ExecutionTime = 7.35938 s  ClockTime = 9 s

Coats CFL Number mean: 0.00105889 max: 0.5145
deltaT = 0.001
Time = 0.121

diagonal:  Solving for Sb, Initial residual = 0, Final residual = 0, No Iterations 0
Saturation b:  Min(Sb) = 1.1e-06 Max(Sb) = 0.93725
DICPCG:  Solving for p, Initial residual = 0.0030643, Final residual = 8.67228e-13, No Iterations 280
ExecutionTime = 7.42188 s  ClockTime = 9 s

Coats CFL Number mean: 0.00112486 max: 0.514747
deltaT = 0.001125
Time = 0.122125

diagonal:  Solving for Sb, Initial residual = 0, Final residual = 0, No Iterations 0
Saturation b:  Min(Sb) = 1.1e-06 Max(Sb) = 0.937412
DICPCG:  Solving for p, Initial residual = 0.00349682, Final residual = 9.46786e-13, No Iterations 283
ExecutionTime = 7.46875 s  ClockTime = 9 s

Coats CFL Number mean: 0.00128803 max: 0.583252
deltaT = 0.001125
Time = 0.12325

diagonal:  Solving for Sb, Initial residual = 0, Final residual = 0, No Iterations 0
Saturation b:  Min(Sb) = 1.1e-06 Max(Sb) = 0.937573
DICPCG:  Solving for p, Initial residual = 0.00343119, Final residual = 8.90976e-13, No Iterations 284
ExecutionTime = 7.51562 s  ClockTime = 9 s

Coats CFL Number mean: 0.00133353 max: 0.800477
deltaT = 0.000964286
Time = 0.124214

diagonal:  Solving for Sb, Initial residual = 0, Final residual = 0, No Iterations 0
Saturation b:  Min(Sb) = 1.1e-06 Max(Sb) = 0.937709
DICPCG:  Solving for p, Initial residual = 0.00277905, Final residual = 8.44503e-13, No Iterations 283
ExecutionTime = 7.5625 s  ClockTime = 9 s

Coats CFL Number mean: 0.00117664 max: 0.718016
deltaT = 0.000964286
Time = 0.125179

diagonal:  Solving for Sb, Initial residual = 0, Final residual = 0, No Iterations 0
Saturation b:  Min(Sb) = 1.1e-06 Max(Sb) = 0.937844
DICPCG:  Solving for p, Initial residual = 0.0026659, Final residual = 8.63691e-13, No Iterations 282
ExecutionTime = 7.60938 s  ClockTime = 9 s

Coats CFL Number mean: 0.00120371 max: 0.697576
deltaT = 0.000964286
Time = 0.126143

diagonal:  Solving for Sb, Initial residual = 0, Final residual = 0, No Iterations 0
Saturation b:  Min(Sb) = 1.1e-06 Max(Sb) = 0.937978
DICPCG:  Solving for p, Initial residual = 0.00255825, Final residual = 9.0383e-13, No Iterations 279
ExecutionTime = 7.65625 s  ClockTime = 9 s

Coats CFL Number mean: 0.00120418 max: 0.744467
deltaT = 0.000964286
Time = 0.127107

diagonal:  Solving for Sb, Initial residual = 0, Final residual = 0, No Iterations 0
Saturation b:  Min(Sb) = 1.1e-06 Max(Sb) = 0.93811
DICPCG:  Solving for p, Initial residual = 0.00263149, Final residual = 9.63413e-13, No Iterations 281
ExecutionTime = 7.70312 s  ClockTime = 9 s

Coats CFL Number mean: 0.00118217 max: 0.68505
deltaT = 0.000964286
Time = 0.128071

diagonal:  Solving for Sb, Initial residual = 0, Final residual = 0, No Iterations 0
Saturation b:  Min(Sb) = 1.1e-06 Max(Sb) = 0.938241
DICPCG:  Solving for p, Initial residual = 0.00279422, Final residual = 8.06957e-13, No Iterations 282
ExecutionTime = 7.73438 s  ClockTime = 9 s

Coats CFL Number mean: 0.00115718 max: 0.635718
deltaT = 0.000964286
Time = 0.129036

diagonal:  Solving for Sb, Initial residual = 0, Final residual = 0, No Iterations 0
Saturation b:  Min(Sb) = 1.1e-06 Max(Sb) = 0.938371
DICPCG:  Solving for p, Initial residual = 0.00291109, Final residual = 8.65943e-13, No Iterations 282
ExecutionTime = 7.78125 s  ClockTime = 9 s

Coats CFL Number mean: 0.00113752 max: 0.573806
deltaT = 0.000964286
Time = 0.13

diagonal:  Solving for Sb, Initial residual = 0, Final residual = 0, No Iterations 0
Saturation b:  Min(Sb) = 1.1e-06 Max(Sb) = 0.9385
DICPCG:  Solving for p, Initial residual = 0.00305794, Final residual = 9.62274e-13, No Iterations 281
ExecutionTime = 7.89062 s  ClockTime = 9 s

Coats CFL Number mean: 0.00112516 max: 0.52154
deltaT = 0.001
Time = 0.131

diagonal:  Solving for Sb, Initial residual = 0, Final residual = 0, No Iterations 0
Saturation b:  Min(Sb) = 1.1e-06 Max(Sb) = 0.938633
DICPCG:  Solving for p, Initial residual = 0.00331072, Final residual = 9.48151e-13, No Iterations 281
ExecutionTime = 7.92188 s  ClockTime = 9 s

Coats CFL Number mean: 0.00116777 max: 0.498191
deltaT = 0.001125
Time = 0.132125

diagonal:  Solving for Sb, Initial residual = 0, Final residual = 0, No Iterations 0
Saturation b:  Min(Sb) = 1.1e-06 Max(Sb) = 0.93878
DICPCG:  Solving for p, Initial residual = 0.00374554, Final residual = 8.67405e-13, No Iterations 280
ExecutionTime = 7.95312 s  ClockTime = 10 s

Coats CFL Number mean: 0.00134565 max: 0.619968
deltaT = 0.001125
Time = 0.13325

diagonal:  Solving for Sb, Initial residual = 0, Final residual = 0, No Iterations 0
Saturation b:  Min(Sb) = 1.1e-06 Max(Sb) = 0.938927
DICPCG:  Solving for p, Initial residual = 0.00364842, Final residual = 8.36168e-13, No Iterations 281
ExecutionTime = 8 s  ClockTime = 10 s

Coats CFL Number mean: 0.00139502 max: 0.834522
deltaT = 0.000964286
Time = 0.134214

diagonal:  Solving for Sb, Initial residual = 0, Final residual = 0, No Iterations 0
Saturation b:  Min(Sb) = 1.1e-06 Max(Sb) = 0.93905
DICPCG:  Solving for p, Initial residual = 0.00300132, Final residual = 8.94707e-13, No Iterations 280
ExecutionTime = 8.04688 s  ClockTime = 10 s

Coats CFL Number mean: 0.00123508 max: 0.707307
deltaT = 0.000964286
Time = 0.135179

diagonal:  Solving for Sb, Initial residual = 0, Final residual = 0, No Iterations 0
Saturation b:  Min(Sb) = 1.1e-06 Max(Sb) = 0.939173
DICPCG:  Solving for p, Initial residual = 0.00287018, Final residual = 9.45143e-13, No Iterations 282
ExecutionTime = 8.09375 s  ClockTime = 10 s

Coats CFL Number mean: 0.00126836 max: 0.686131
deltaT = 0.000964286
Time = 0.136143

diagonal:  Solving for Sb, Initial residual = 0, Final residual = 0, No Iterations 0
Saturation b:  Min(Sb) = 1.1e-06 Max(Sb) = 0.939295
DICPCG:  Solving for p, Initial residual = 0.0027353, Final residual = 9.70246e-13, No Iterations 282
ExecutionTime = 8.125 s  ClockTime = 10 s

Coats CFL Number mean: 0.00127386 max: 0.707419
deltaT = 0.000964286
Time = 0.137107

diagonal:  Solving for Sb, Initial residual = 0, Final residual = 0, No Iterations 0
Saturation b:  Min(Sb) = 1.1e-06 Max(Sb) = 0.939416
DICPCG:  Solving for p, Initial residual = 0.00278845, Final residual = 8.95197e-13, No Iterations 283
ExecutionTime = 8.17188 s  ClockTime = 10 s

Coats CFL Number mean: 0.0012616 max: 0.695145
deltaT = 0.000964286
Time = 0.138071

diagonal:  Solving for Sb, Initial residual = 0, Final residual = 0, No Iterations 0
Saturation b:  Min(Sb) = 1.1e-06 Max(Sb) = 0.939536
DICPCG:  Solving for p, Initial residual = 0.00285413, Final residual = 9.10131e-13, No Iterations 283
ExecutionTime = 8.21875 s  ClockTime = 10 s

Coats CFL Number mean: 0.0012511 max: 0.634605
deltaT = 0.000964286
Time = 0.139036

diagonal:  Solving for Sb, Initial residual = 0, Final residual = 0, No Iterations 0
Saturation b:  Min(Sb) = 1.1e-06 Max(Sb) = 0.939655
DICPCG:  Solving for p, Initial residual = 0.00287653, Final residual = 9.03153e-13, No Iterations 283
ExecutionTime = 8.25 s  ClockTime = 10 s

Coats CFL Number mean: 0.00124675 max: 0.573744
deltaT = 0.000964286
Time = 0.14

diagonal:  Solving for Sb, Initial residual = 0, Final residual = 0, No Iterations 0
Saturation b:  Min(Sb) = 1.1e-06 Max(Sb) = 0.939773
DICPCG:  Solving for p, Initial residual = 0.00293909, Final residual = 9.90462e-13, No Iterations 282
ExecutionTime = 8.35938 s  ClockTime = 10 s

Coats CFL Number mean: 0.00124891 max: 0.525662
deltaT = 0.001
Time = 0.141

diagonal:  Solving for Sb, Initial residual = 0, Final residual = 0, No Iterations 0
Saturation b:  Min(Sb) = 1.1e-06 Max(Sb) = 0.939894
DICPCG:  Solving for p, Initial residual = 0.00308381, Final residual = 8.77103e-13, No Iterations 281
ExecutionTime = 8.45312 s  ClockTime = 10 s

Coats CFL Number mean: 0.00131325 max: 0.507825
deltaT = 0.001125
Time = 0.142125

diagonal:  Solving for Sb, Initial residual = 0, Final residual = 0, No Iterations 0
Saturation b:  Min(Sb) = 1.1e-06 Max(Sb) = 0.940029
DICPCG:  Solving for p, Initial residual = 0.00335402, Final residual = 9.29724e-13, No Iterations 282
ExecutionTime = 8.5 s  ClockTime = 10 s

Coats CFL Number mean: 0.00152658 max: 0.862657
deltaT = 0.000875
Time = 0.143

diagonal:  Solving for Sb, Initial residual = 0, Final residual = 0, No Iterations 0
Saturation b:  Min(Sb) = 1.1e-06 Max(Sb) = 0.940133
DICPCG:  Solving for p, Initial residual = 0.00251797, Final residual = 8.68082e-13, No Iterations 285
ExecutionTime = 8.54688 s  ClockTime = 10 s

Coats CFL Number mean: 0.00121388 max: 0.753831
deltaT = 0.000777778
Time = 0.143778

diagonal:  Solving for Sb, Initial residual = 0, Final residual = 0, No Iterations 0
Saturation b:  Min(Sb) = 1.1e-06 Max(Sb) = 0.940225
DICPCG:  Solving for p, Initial residual = 0.00215193, Final residual = 8.56427e-13, No Iterations 285
ExecutionTime = 8.60938 s  ClockTime = 10 s

Coats CFL Number mean: 0.00109779 max: 0.641824
deltaT = 0.000777778
Time = 0.144556

diagonal:  Solving for Sb, Initial residual = 0, Final residual = 0, No Iterations 0
Saturation b:  Min(Sb) = 1.1e-06 Max(Sb) = 0.940316
DICPCG:  Solving for p, Initial residual = 0.00210093, Final residual = 9.9307e-13, No Iterations 283
ExecutionTime = 8.64062 s  ClockTime = 10 s

Coats CFL Number mean: 0.00111404 max: 0.586586
deltaT = 0.000777778
Time = 0.145333

diagonal:  Solving for Sb, Initial residual = 0, Final residual = 0, No Iterations 0
Saturation b:  Min(Sb) = 1.1e-06 Max(Sb) = 0.940407
DICPCG:  Solving for p, Initial residual = 0.00202254, Final residual = 8.77178e-13, No Iterations 278
ExecutionTime = 8.6875 s  ClockTime = 10 s

Coats CFL Number mean: 0.00111801 max: 0.658601
deltaT = 0.000777778
Time = 0.146111

diagonal:  Solving for Sb, Initial residual = 0, Final residual = 0, No Iterations 0
Saturation b:  Min(Sb) = 1.1e-06 Max(Sb) = 0.940497
DICPCG:  Solving for p, Initial residual = 0.002077, Final residual = 9.18831e-13, No Iterations 278
ExecutionTime = 8.73438 s  ClockTime = 10 s

Coats CFL Number mean: 0.00111018 max: 0.666688
deltaT = 0.000777778
Time = 0.146889

diagonal:  Solving for Sb, Initial residual = 0, Final residual = 0, No Iterations 0
Saturation b:  Min(Sb) = 1.1e-06 Max(Sb) = 0.940587
DICPCG:  Solving for p, Initial residual = 0.00217844, Final residual = 9.89576e-13, No Iterations 285
ExecutionTime = 8.78125 s  ClockTime = 10 s

Coats CFL Number mean: 0.00109895 max: 0.626709
deltaT = 0.000777778
Time = 0.147667

diagonal:  Solving for Sb, Initial residual = 0, Final residual = 0, No Iterations 0
Saturation b:  Min(Sb) = 1.1e-06 Max(Sb) = 0.940675
DICPCG:  Solving for p, Initial residual = 0.00222916, Final residual = 8.31601e-13, No Iterations 286
ExecutionTime = 8.8125 s  ClockTime = 10 s

Coats CFL Number mean: 0.00108837 max: 0.581376
deltaT = 0.000777778
Time = 0.148444

diagonal:  Solving for Sb, Initial residual = 0, Final residual = 0, No Iterations 0
Saturation b:  Min(Sb) = 1.1e-06 Max(Sb) = 0.940764
DICPCG:  Solving for p, Initial residual = 0.00230474, Final residual = 8.0794e-13, No Iterations 286
ExecutionTime = 8.85938 s  ClockTime = 11 s

Coats CFL Number mean: 0.00107892 max: 0.541069
deltaT = 0.000777778
Time = 0.149222

diagonal:  Solving for Sb, Initial residual = 0, Final residual = 0, No Iterations 0
Saturation b:  Min(Sb) = 1.1e-06 Max(Sb) = 0.940852
DICPCG:  Solving for p, Initial residual = 0.00237559, Final residual = 8.71288e-13, No Iterations 286
ExecutionTime = 8.90625 s  ClockTime = 11 s

Coats CFL Number mean: 0.00107155 max: 0.506039
deltaT = 0.000777778
Time = 0.15

diagonal:  Solving for Sb, Initial residual = 0, Final residual = 0, No Iterations 0
Saturation b:  Min(Sb) = 1.1e-06 Max(Sb) = 0.940939
DICPCG:  Solving for p, Initial residual = 0.00248649, Final residual = 9.09271e-13, No Iterations 285
ExecutionTime = 9.01562 s  ClockTime = 11 s

Coats CFL Number mean: 0.00107162 max: 0.474088
deltaT = 0.000833333
Time = 0.150833

diagonal:  Solving for Sb, Initial residual = 0, Final residual = 0, No Iterations 0
Saturation b:  Min(Sb) = 1.1e-06 Max(Sb) = 0.941032
DICPCG:  Solving for p, Initial residual = 0.00269725, Final residual = 9.71801e-13, No Iterations 285
ExecutionTime = 9.14062 s  ClockTime = 11 s

Coats CFL Number mean: 0.00117048 max: 0.470321
deltaT = 0.000916667
Time = 0.15175

diagonal:  Solving for Sb, Initial residual = 0, Final residual = 0, No Iterations 0
Saturation b:  Min(Sb) = 1.1e-06 Max(Sb) = 0.941133
DICPCG:  Solving for p, Initial residual = 0.00278834, Final residual = 9.2052e-13, No Iterations 286
ExecutionTime = 9.1875 s  ClockTime = 11 s

Coats CFL Number mean: 0.00134192 max: 0.898585
deltaT = 0.00075
Time = 0.1525

diagonal:  Solving for Sb, Initial residual = 0, Final residual = 0, No Iterations 0
Saturation b:  Min(Sb) = 1.1e-06 Max(Sb) = 0.941216
DICPCG:  Solving for p, Initial residual = 0.00204379, Final residual = 8.21788e-13, No Iterations 285
ExecutionTime = 9.23438 s  ClockTime = 11 s

Coats CFL Number mean: 0.00110884 max: 0.845634
deltaT = 0.000625
Time = 0.153125

diagonal:  Solving for Sb, Initial residual = 0, Final residual = 0, No Iterations 0
Saturation b:  Min(Sb) = 1.1e-06 Max(Sb) = 0.941284
DICPCG:  Solving for p, Initial residual = 0.00180186, Final residual = 8.88017e-13, No Iterations 283
ExecutionTime = 9.28125 s  ClockTime = 11 s

Coats CFL Number mean: 0.000918194 max: 0.646521
deltaT = 0.0006875
Time = 0.153813

diagonal:  Solving for Sb, Initial residual = 0, Final residual = 0, No Iterations 0
Saturation b:  Min(Sb) = 1.1e-06 Max(Sb) = 0.941359
DICPCG:  Solving for p, Initial residual = 0.00201003, Final residual = 8.70441e-13, No Iterations 284
ExecutionTime = 9.32812 s  ClockTime = 11 s

Coats CFL Number mean: 0.000997913 max: 0.614969
deltaT = 0.0006875
Time = 0.1545

diagonal:  Solving for Sb, Initial residual = 0, Final residual = 0, No Iterations 0
Saturation b:  Min(Sb) = 1.1e-06 Max(Sb) = 0.941433
DICPCG:  Solving for p, Initial residual = 0.00209972, Final residual = 9.21697e-13, No Iterations 284
ExecutionTime = 9.375 s  ClockTime = 11 s

Coats CFL Number mean: 0.000983864 max: 0.526652
deltaT = 0.000785714
Time = 0.155286

diagonal:  Solving for Sb, Initial residual = 0, Final residual = 0, No Iterations 0
Saturation b:  Min(Sb) = 1.1e-06 Max(Sb) = 0.941518
DICPCG:  Solving for p, Initial residual = 0.00246394, Final residual = 8.34902e-13, No Iterations 285
ExecutionTime = 9.40625 s  ClockTime = 11 s

Coats CFL Number mean: 0.00110657 max: 0.543912
deltaT = 0.000785714
Time = 0.156071

diagonal:  Solving for Sb, Initial residual = 0, Final residual = 0, No Iterations 0
Saturation b:  Min(Sb) = 1.1e-06 Max(Sb) = 0.941602
DICPCG:  Solving for p, Initial residual = 0.002543, Final residual = 8.65894e-13, No Iterations 281
ExecutionTime = 9.45312 s  ClockTime = 11 s

Coats CFL Number mean: 0.00109381 max: 0.520262
deltaT = 0.000785714
Time = 0.156857

diagonal:  Solving for Sb, Initial residual = 0, Final residual = 0, No Iterations 0
Saturation b:  Min(Sb) = 1.1e-06 Max(Sb) = 0.941686
DICPCG:  Solving for p, Initial residual = 0.0025836, Final residual = 9.91005e-13, No Iterations 281
ExecutionTime = 9.5 s  ClockTime = 11 s

Coats CFL Number mean: 0.00109241 max: 0.492713
deltaT = 0.000785714
Time = 0.157643

diagonal:  Solving for Sb, Initial residual = 0, Final residual = 0, No Iterations 0
Saturation b:  Min(Sb) = 1.1e-06 Max(Sb) = 0.941769
DICPCG:  Solving for p, Initial residual = 0.00254771, Final residual = 8.14637e-13, No Iterations 280
ExecutionTime = 9.54688 s  ClockTime = 11 s

Coats CFL Number mean: 0.00110956 max: 0.508404
deltaT = 0.000785714
Time = 0.158429

diagonal:  Solving for Sb, Initial residual = 0, Final residual = 0, No Iterations 0
Saturation b:  Min(Sb) = 1.1e-06 Max(Sb) = 0.941851
DICPCG:  Solving for p, Initial residual = 0.00240215, Final residual = 9.41945e-13, No Iterations 284
ExecutionTime = 9.59375 s  ClockTime = 11 s

Coats CFL Number mean: 0.00112826 max: 0.832002
deltaT = 0.00052381
Time = 0.158952

diagonal:  Solving for Sb, Initial residual = 0, Final residual = 0, No Iterations 0
Saturation b:  Min(Sb) = 1.1e-06 Max(Sb) = 0.941906
DICPCG:  Solving for p, Initial residual = 0.00166816, Final residual = 9.58253e-13, No Iterations 278
ExecutionTime = 9.64062 s  ClockTime = 11 s

Coats CFL Number mean: 0.00075201 max: 0.579916
deltaT = 0.00052381
Time = 0.159476

diagonal:  Solving for Sb, Initial residual = 0, Final residual = 0, No Iterations 0
Saturation b:  Min(Sb) = 1.1e-06 Max(Sb) = 0.94196
DICPCG:  Solving for p, Initial residual = 0.00173062, Final residual = 8.72636e-13, No Iterations 278
ExecutionTime = 9.6875 s  ClockTime = 11 s

Coats CFL Number mean: 0.000749401 max: 0.554531
deltaT = 0.00052381
Time = 0.16

diagonal:  Solving for Sb, Initial residual = 0, Final residual = 0, No Iterations 0
Saturation b:  Min(Sb) = 1.1e-06 Max(Sb) = 0.942014
DICPCG:  Solving for p, Initial residual = 0.00177636, Final residual = 8.56212e-13, No Iterations 278
ExecutionTime = 9.76562 s  ClockTime = 12 s

Coats CFL Number mean: 0.00074784 max: 0.514165
deltaT = 0.000588235
Time = 0.160588

diagonal:  Solving for Sb, Initial residual = 0, Final residual = 0, No Iterations 0
Saturation b:  Min(Sb) = 1.1e-06 Max(Sb) = 0.942075
DICPCG:  Solving for p, Initial residual = 0.0020026, Final residual = 8.53838e-13, No Iterations 278
ExecutionTime = 9.84375 s  ClockTime = 12 s

Coats CFL Number mean: 0.000840291 max: 0.525389
deltaT = 0.000672269
Time = 0.161261

diagonal:  Solving for Sb, Initial residual = 0, Final residual = 0, No Iterations 0
Saturation b:  Min(Sb) = 1.1e-06 Max(Sb) = 0.942144
DICPCG:  Solving for p, Initial residual = 0.00226882, Final residual = 8.52235e-13, No Iterations 279
ExecutionTime = 9.89062 s  ClockTime = 12 s

Coats CFL Number mean: 0.000962168 max: 0.538238
deltaT = 0.000728291
Time = 0.161989

diagonal:  Solving for Sb, Initial residual = 0, Final residual = 0, No Iterations 0
Saturation b:  Min(Sb) = 1.1e-06 Max(Sb) = 0.942219
DICPCG:  Solving for p, Initial residual = 0.00247452, Final residual = 9.40932e-13, No Iterations 279
ExecutionTime = 9.9375 s  ClockTime = 12 s

Coats CFL Number mean: 0.00104755 max: 0.597321
deltaT = 0.00080112
Time = 0.16279

diagonal:  Solving for Sb, Initial residual = 0, Final residual = 0, No Iterations 0
Saturation b:  Min(Sb) = 1.1e-06 Max(Sb) = 0.9423
DICPCG:  Solving for p, Initial residual = 0.00270295, Final residual = 9.46595e-13, No Iterations 282
ExecutionTime = 9.98438 s  ClockTime = 12 s

Coats CFL Number mean: 0.00117711 max: 0.644954
deltaT = 0.00080112
Time = 0.163591

diagonal:  Solving for Sb, Initial residual = 0, Final residual = 0, No Iterations 0
Saturation b:  Min(Sb) = 1.1e-06 Max(Sb) = 0.942381
DICPCG:  Solving for p, Initial residual = 0.00249462, Final residual = 8.82439e-13, No Iterations 282
ExecutionTime = 10.0469 s  ClockTime = 12 s

Coats CFL Number mean: 0.00119541 max: 0.948085
deltaT = 0.000582633
Time = 0.164174

diagonal:  Solving for Sb, Initial residual = 0, Final residual = 0, No Iterations 0
Saturation b:  Min(Sb) = 1.1e-06 Max(Sb) = 0.942439
DICPCG:  Solving for p, Initial residual = 0.00186328, Final residual = 9.27174e-13, No Iterations 279
ExecutionTime = 10.0938 s  ClockTime = 12 s

Coats CFL Number mean: 0.000866432 max: 0.654867
deltaT = 0.00064737
Time = 0.164821

diagonal:  Solving for Sb, Initial residual = 0, Final residual = 0, No Iterations 0
Saturation b:  Min(Sb) = 1.1e-06 Max(Sb) = 0.942504
DICPCG:  Solving for p, Initial residual = 0.00210172, Final residual = 9.85943e-13, No Iterations 281
ExecutionTime = 10.1406 s  ClockTime = 12 s

Coats CFL Number mean: 0.0009579 max: 0.633374
deltaT = 0.00064737
Time = 0.165468

diagonal:  Solving for Sb, Initial residual = 0, Final residual = 0, No Iterations 0
Saturation b:  Min(Sb) = 1.1e-06 Max(Sb) = 0.942569
DICPCG:  Solving for p, Initial residual = 0.00211556, Final residual = 9.18056e-13, No Iterations 283
ExecutionTime = 10.1875 s  ClockTime = 12 s

Coats CFL Number mean: 0.000955864 max: 0.540959
deltaT = 0.00064737
Time = 0.166116

diagonal:  Solving for Sb, Initial residual = 0, Final residual = 0, No Iterations 0
Saturation b:  Min(Sb) = 1.1e-06 Max(Sb) = 0.942633
DICPCG:  Solving for p, Initial residual = 0.00207312, Final residual = 8.72194e-13, No Iterations 279
ExecutionTime = 10.2344 s  ClockTime = 12 s

Coats CFL Number mean: 0.000957574 max: 0.459433
deltaT = 0.00064737
Time = 0.166763

diagonal:  Solving for Sb, Initial residual = 0, Final residual = 0, No Iterations 0
Saturation b:  Min(Sb) = 1.1e-06 Max(Sb) = 0.942696
DICPCG:  Solving for p, Initial residual = 0.00202409, Final residual = 9.31802e-13, No Iterations 285
ExecutionTime = 10.2812 s  ClockTime = 12 s

[...]
deltaT = 0.00111111
Time = 9.94111

diagonal:  Solving for Sb, Initial residual = 0, Final residual = 0, No Iterations 0
Saturation b:  Min(Sb) = 1.1e-06 Max(Sb) = 0.983061
DICPCG:  Solving for p, Initial residual = 2.28438e-05, Final residual = 9.53882e-13, No Iterations 250
ExecutionTime = 494.391 s  ClockTime = 610 s

Coats CFL Number mean: 0.0155419 max: 0.0925099
deltaT = 0.00111111
Time = 9.94222

diagonal:  Solving for Sb, Initial residual = 0, Final residual = 0, No Iterations 0
Saturation b:  Min(Sb) = 1.1e-06 Max(Sb) = 0.983061
DICPCG:  Solving for p, Initial residual = 2.33382e-05, Final residual = 8.67748e-13, No Iterations 250
ExecutionTime = 494.438 s  ClockTime = 610 s

Coats CFL Number mean: 0.0155357 max: 0.0918338
deltaT = 0.00111111
Time = 9.94333

diagonal:  Solving for Sb, Initial residual = 0, Final residual = 0, No Iterations 0
Saturation b:  Min(Sb) = 1.1e-06 Max(Sb) = 0.983062
DICPCG:  Solving for p, Initial residual = 2.38238e-05, Final residual = 9.02583e-13, No Iterations 249
ExecutionTime = 494.484 s  ClockTime = 610 s

Coats CFL Number mean: 0.0155293 max: 0.0910959
deltaT = 0.00111111
Time = 9.94444

diagonal:  Solving for Sb, Initial residual = 0, Final residual = 0, No Iterations 0
Saturation b:  Min(Sb) = 1.1e-06 Max(Sb) = 0.983062
DICPCG:  Solving for p, Initial residual = 2.43022e-05, Final residual = 8.06374e-13, No Iterations 249
ExecutionTime = 494.516 s  ClockTime = 610 s

Coats CFL Number mean: 0.0155227 max: 0.0903067
deltaT = 0.00111111
Time = 9.94556

diagonal:  Solving for Sb, Initial residual = 0, Final residual = 0, No Iterations 0
Saturation b:  Min(Sb) = 1.1e-06 Max(Sb) = 0.983063
DICPCG:  Solving for p, Initial residual = 2.4774e-05, Final residual = 9.68665e-13, No Iterations 248
ExecutionTime = 494.562 s  ClockTime = 610 s

Coats CFL Number mean: 0.015516 max: 0.0894758
deltaT = 0.00111111
Time = 9.94667

diagonal:  Solving for Sb, Initial residual = 0, Final residual = 0, No Iterations 0
Saturation b:  Min(Sb) = 1.1e-06 Max(Sb) = 0.983063
DICPCG:  Solving for p, Initial residual = 2.52397e-05, Final residual = 9.13429e-13, No Iterations 248
ExecutionTime = 494.609 s  ClockTime = 610 s

Coats CFL Number mean: 0.0155091 max: 0.0886114
deltaT = 0.00111111
Time = 9.94778

diagonal:  Solving for Sb, Initial residual = 0, Final residual = 0, No Iterations 0
Saturation b:  Min(Sb) = 1.1e-06 Max(Sb) = 0.983064
DICPCG:  Solving for p, Initial residual = 2.56999e-05, Final residual = 8.87877e-13, No Iterations 247
ExecutionTime = 494.641 s  ClockTime = 610 s

Coats CFL Number mean: 0.0155022 max: 0.0877211
deltaT = 0.00111111
Time = 9.94889

diagonal:  Solving for Sb, Initial residual = 0, Final residual = 0, No Iterations 0
Saturation b:  Min(Sb) = 1.1e-06 Max(Sb) = 0.983064
DICPCG:  Solving for p, Initial residual = 2.6155e-05, Final residual = 9.23167e-13, No Iterations 246
ExecutionTime = 494.688 s  ClockTime = 610 s

Coats CFL Number mean: 0.0154953 max: 0.0868112
deltaT = 0.00111111
Time = 9.95

diagonal:  Solving for Sb, Initial residual = 0, Final residual = 0, No Iterations 0
Saturation b:  Min(Sb) = 1.1e-06 Max(Sb) = 0.983065
DICPCG:  Solving for p, Initial residual = 2.66172e-05, Final residual = 8.85794e-13, No Iterations 246
ExecutionTime = 494.75 s  ClockTime = 610 s

Coats CFL Number mean: 0.0154883 max: 0.0858874
deltaT = 0.00111111
Time = 9.95111

diagonal:  Solving for Sb, Initial residual = 0, Final residual = 0, No Iterations 0
Saturation b:  Min(Sb) = 1.1e-06 Max(Sb) = 0.983065
DICPCG:  Solving for p, Initial residual = 2.70786e-05, Final residual = 8.61532e-13, No Iterations 246
ExecutionTime = 494.828 s  ClockTime = 610 s

Coats CFL Number mean: 0.0154813 max: 0.0849547
deltaT = 0.00111111
Time = 9.95222

diagonal:  Solving for Sb, Initial residual = 0, Final residual = 0, No Iterations 0
Saturation b:  Min(Sb) = 1.1e-06 Max(Sb) = 0.983066
DICPCG:  Solving for p, Initial residual = 2.75383e-05, Final residual = 8.67954e-13, No Iterations 246
ExecutionTime = 494.859 s  ClockTime = 610 s

Coats CFL Number mean: 0.0154743 max: 0.0840171
deltaT = 0.00111111
Time = 9.95333

diagonal:  Solving for Sb, Initial residual = 0, Final residual = 0, No Iterations 0
Saturation b:  Min(Sb) = 1.1e-06 Max(Sb) = 0.983066
DICPCG:  Solving for p, Initial residual = 2.79978e-05, Final residual = 8.90964e-13, No Iterations 246
ExecutionTime = 494.906 s  ClockTime = 611 s

Coats CFL Number mean: 0.0154674 max: 0.0830784
deltaT = 0.00111111
Time = 9.95444

diagonal:  Solving for Sb, Initial residual = 0, Final residual = 0, No Iterations 0
Saturation b:  Min(Sb) = 1.1e-06 Max(Sb) = 0.983067
DICPCG:  Solving for p, Initial residual = 2.84574e-05, Final residual = 9.02673e-13, No Iterations 246
ExecutionTime = 494.953 s  ClockTime = 611 s

Coats CFL Number mean: 0.0154605 max: 0.0821416
deltaT = 0.00111111
Time = 9.95556

diagonal:  Solving for Sb, Initial residual = 0, Final residual = 0, No Iterations 0
Saturation b:  Min(Sb) = 1.1e-06 Max(Sb) = 0.983067
DICPCG:  Solving for p, Initial residual = 2.89178e-05, Final residual = 9.27309e-13, No Iterations 246
ExecutionTime = 494.984 s  ClockTime = 611 s

Coats CFL Number mean: 0.0154536 max: 0.0812092
deltaT = 0.00111111
Time = 9.95667

diagonal:  Solving for Sb, Initial residual = 0, Final residual = 0, No Iterations 0
Saturation b:  Min(Sb) = 1.1e-06 Max(Sb) = 0.983068
DICPCG:  Solving for p, Initial residual = 2.93793e-05, Final residual = 9.67266e-13, No Iterations 246
ExecutionTime = 495.031 s  ClockTime = 611 s

Coats CFL Number mean: 0.0154468 max: 0.0802834
deltaT = 0.00111111
Time = 9.95778

diagonal:  Solving for Sb, Initial residual = 0, Final residual = 0, No Iterations 0
Saturation b:  Min(Sb) = 1.1e-06 Max(Sb) = 0.983068
DICPCG:  Solving for p, Initial residual = 2.98437e-05, Final residual = 9.99895e-13, No Iterations 246
ExecutionTime = 495.078 s  ClockTime = 611 s

Coats CFL Number mean: 0.01544 max: 0.0793661
deltaT = 0.00111111
Time = 9.95889

diagonal:  Solving for Sb, Initial residual = 0, Final residual = 0, No Iterations 0
Saturation b:  Min(Sb) = 1.1e-06 Max(Sb) = 0.983069
DICPCG:  Solving for p, Initial residual = 3.03121e-05, Final residual = 8.99835e-13, No Iterations 247
ExecutionTime = 495.109 s  ClockTime = 611 s

Coats CFL Number mean: 0.0154334 max: 0.0784587
deltaT = 0.00111111
Time = 9.96

diagonal:  Solving for Sb, Initial residual = 0, Final residual = 0, No Iterations 0
Saturation b:  Min(Sb) = 1.1e-06 Max(Sb) = 0.983069
DICPCG:  Solving for p, Initial residual = 3.07863e-05, Final residual = 9.27776e-13, No Iterations 247
ExecutionTime = 495.188 s  ClockTime = 611 s

Coats CFL Number mean: 0.0154267 max: 0.0775624
deltaT = 0.00111111
Time = 9.96111

diagonal:  Solving for Sb, Initial residual = 0, Final residual = 0, No Iterations 0
Saturation b:  Min(Sb) = 1.1e-06 Max(Sb) = 0.98307
DICPCG:  Solving for p, Initial residual = 3.12719e-05, Final residual = 9.83343e-13, No Iterations 247
ExecutionTime = 495.25 s  ClockTime = 611 s

Coats CFL Number mean: 0.0154202 max: 0.0766788
deltaT = 0.00111111
Time = 9.96222

diagonal:  Solving for Sb, Initial residual = 0, Final residual = 0, No Iterations 0
Saturation b:  Min(Sb) = 1.1e-06 Max(Sb) = 0.98307
DICPCG:  Solving for p, Initial residual = 3.17748e-05, Final residual = 8.41769e-13, No Iterations 248
ExecutionTime = 495.297 s  ClockTime = 611 s

Coats CFL Number mean: 0.0154138 max: 0.0758079
deltaT = 0.00111111
Time = 9.96333

diagonal:  Solving for Sb, Initial residual = 0, Final residual = 0, No Iterations 0
Saturation b:  Min(Sb) = 1.1e-06 Max(Sb) = 0.983071
DICPCG:  Solving for p, Initial residual = 3.22733e-05, Final residual = 9.18269e-13, No Iterations 248
ExecutionTime = 495.344 s  ClockTime = 611 s

Coats CFL Number mean: 0.0154074 max: 0.0749505
deltaT = 0.00111111
Time = 9.96444

diagonal:  Solving for Sb, Initial residual = 0, Final residual = 0, No Iterations 0
Saturation b:  Min(Sb) = 1.1e-06 Max(Sb) = 0.983071
DICPCG:  Solving for p, Initial residual = 3.27669e-05, Final residual = 9.96406e-13, No Iterations 248
ExecutionTime = 495.391 s  ClockTime = 611 s

Coats CFL Number mean: 0.0154012 max: 0.0741069
deltaT = 0.00111111
Time = 9.96556

diagonal:  Solving for Sb, Initial residual = 0, Final residual = 0, No Iterations 0
Saturation b:  Min(Sb) = 1.1e-06 Max(Sb) = 0.983072
DICPCG:  Solving for p, Initial residual = 3.32569e-05, Final residual = 8.53866e-13, No Iterations 249
ExecutionTime = 495.438 s  ClockTime = 611 s

Coats CFL Number mean: 0.015395 max: 0.0732776
deltaT = 0.00111111
Time = 9.96667

diagonal:  Solving for Sb, Initial residual = 0, Final residual = 0, No Iterations 0
Saturation b:  Min(Sb) = 1.1e-06 Max(Sb) = 0.983072
DICPCG:  Solving for p, Initial residual = 3.37438e-05, Final residual = 9.59491e-13, No Iterations 249
ExecutionTime = 495.484 s  ClockTime = 611 s

Coats CFL Number mean: 0.0153889 max: 0.0724625
deltaT = 0.00111111
Time = 9.96778

diagonal:  Solving for Sb, Initial residual = 0, Final residual = 0, No Iterations 0
Saturation b:  Min(Sb) = 1.1e-06 Max(Sb) = 0.983073
DICPCG:  Solving for p, Initial residual = 3.42288e-05, Final residual = 7.89864e-13, No Iterations 250
ExecutionTime = 495.516 s  ClockTime = 611 s

Coats CFL Number mean: 0.015383 max: 0.0716619
deltaT = 0.00111111
Time = 9.96889

diagonal:  Solving for Sb, Initial residual = 0, Final residual = 0, No Iterations 0
Saturation b:  Min(Sb) = 1.1e-06 Max(Sb) = 0.983073
DICPCG:  Solving for p, Initial residual = 3.47123e-05, Final residual = 7.88329e-13, No Iterations 250
ExecutionTime = 495.562 s  ClockTime = 611 s

Coats CFL Number mean: 0.0153771 max: 0.0708756
deltaT = 0.00111111
Time = 9.97

diagonal:  Solving for Sb, Initial residual = 0, Final residual = 0, No Iterations 0
Saturation b:  Min(Sb) = 1.1e-06 Max(Sb) = 0.983074
DICPCG:  Solving for p, Initial residual = 3.51944e-05, Final residual = 9.06163e-13, No Iterations 250
ExecutionTime = 495.641 s  ClockTime = 611 s

Coats CFL Number mean: 0.0153713 max: 0.0701035
deltaT = 0.00111111
Time = 9.97111

diagonal:  Solving for Sb, Initial residual = 0, Final residual = 0, No Iterations 0
Saturation b:  Min(Sb) = 1.1e-06 Max(Sb) = 0.983074
DICPCG:  Solving for p, Initial residual = 3.56766e-05, Final residual = 9.37223e-13, No Iterations 250
ExecutionTime = 495.719 s  ClockTime = 612 s

Coats CFL Number mean: 0.0153657 max: 0.0693455
deltaT = 0.00111111
Time = 9.97222

diagonal:  Solving for Sb, Initial residual = 0, Final residual = 0, No Iterations 0
Saturation b:  Min(Sb) = 1.1e-06 Max(Sb) = 0.983075
DICPCG:  Solving for p, Initial residual = 3.61597e-05, Final residual = 8.38476e-13, No Iterations 251
ExecutionTime = 495.781 s  ClockTime = 612 s

Coats CFL Number mean: 0.0153601 max: 0.0686013
deltaT = 0.00111111
Time = 9.97333

diagonal:  Solving for Sb, Initial residual = 0, Final residual = 0, No Iterations 0
Saturation b:  Min(Sb) = 1.1e-06 Max(Sb) = 0.983075
DICPCG:  Solving for p, Initial residual = 3.66425e-05, Final residual = 9.37333e-13, No Iterations 251
ExecutionTime = 495.828 s  ClockTime = 612 s

Coats CFL Number mean: 0.0153547 max: 0.0678707
deltaT = 0.00111111
Time = 9.97444

diagonal:  Solving for Sb, Initial residual = 0, Final residual = 0, No Iterations 0
Saturation b:  Min(Sb) = 1.1e-06 Max(Sb) = 0.983076
DICPCG:  Solving for p, Initial residual = 3.7126e-05, Final residual = 9.39631e-13, No Iterations 251
ExecutionTime = 495.859 s  ClockTime = 612 s

Coats CFL Number mean: 0.0153494 max: 0.0671533
deltaT = 0.00111111
Time = 9.97556

diagonal:  Solving for Sb, Initial residual = 0, Final residual = 0, No Iterations 0
Saturation b:  Min(Sb) = 1.1e-06 Max(Sb) = 0.983076
DICPCG:  Solving for p, Initial residual = 3.76094e-05, Final residual = 9.88007e-13, No Iterations 251
ExecutionTime = 495.906 s  ClockTime = 612 s

Coats CFL Number mean: 0.0153442 max: 0.0664487
deltaT = 0.00111111
Time = 9.97667

diagonal:  Solving for Sb, Initial residual = 0, Final residual = 0, No Iterations 0
Saturation b:  Min(Sb) = 1.1e-06 Max(Sb) = 0.983077
DICPCG:  Solving for p, Initial residual = 3.80924e-05, Final residual = 9.57478e-13, No Iterations 252
ExecutionTime = 495.953 s  ClockTime = 612 s

Coats CFL Number mean: 0.0153392 max: 0.0657566
deltaT = 0.00111111
Time = 9.97778

diagonal:  Solving for Sb, Initial residual = 0, Final residual = 0, No Iterations 0
Saturation b:  Min(Sb) = 1.1e-06 Max(Sb) = 0.983077
DICPCG:  Solving for p, Initial residual = 3.85756e-05, Final residual = 9.1797e-13, No Iterations 253
ExecutionTime = 496 s  ClockTime = 612 s

Coats CFL Number mean: 0.0153343 max: 0.0650766
deltaT = 0.00111111
Time = 9.97889

diagonal:  Solving for Sb, Initial residual = 0, Final residual = 0, No Iterations 0
Saturation b:  Min(Sb) = 1.1e-06 Max(Sb) = 0.983078
DICPCG:  Solving for p, Initial residual = 3.90583e-05, Final residual = 9.5347e-13, No Iterations 253
ExecutionTime = 496.047 s  ClockTime = 612 s

Coats CFL Number mean: 0.0153297 max: 0.0644082
deltaT = 0.00111111
Time = 9.98

diagonal:  Solving for Sb, Initial residual = 0, Final residual = 0, No Iterations 0
Saturation b:  Min(Sb) = 1.1e-06 Max(Sb) = 0.983078
DICPCG:  Solving for p, Initial residual = 3.95391e-05, Final residual = 9.84693e-13, No Iterations 253
ExecutionTime = 496.109 s  ClockTime = 612 s

Coats CFL Number mean: 0.0153252 max: 0.0637509
deltaT = 0.00111111
Time = 9.98111

diagonal:  Solving for Sb, Initial residual = 0, Final residual = 0, No Iterations 0
Saturation b:  Min(Sb) = 1.1e-06 Max(Sb) = 0.983079
DICPCG:  Solving for p, Initial residual = 4.00165e-05, Final residual = 9.00994e-13, No Iterations 254
ExecutionTime = 496.219 s  ClockTime = 612 s

Coats CFL Number mean: 0.015321 max: 0.0631044
deltaT = 0.00111111
Time = 9.98222

diagonal:  Solving for Sb, Initial residual = 0, Final residual = 0, No Iterations 0
Saturation b:  Min(Sb) = 1.1e-06 Max(Sb) = 0.983079
DICPCG:  Solving for p, Initial residual = 4.05102e-05, Final residual = 9.66579e-13, No Iterations 254
ExecutionTime = 496.266 s  ClockTime = 612 s

Coats CFL Number mean: 0.0153171 max: 0.0624681
deltaT = 0.00111111
Time = 9.98333

diagonal:  Solving for Sb, Initial residual = 0, Final residual = 0, No Iterations 0
Saturation b:  Min(Sb) = 1.1e-06 Max(Sb) = 0.98308
DICPCG:  Solving for p, Initial residual = 4.10364e-05, Final residual = 8.86245e-13, No Iterations 255
ExecutionTime = 496.297 s  ClockTime = 612 s

Coats CFL Number mean: 0.0153134 max: 0.0618416
deltaT = 0.00111111
Time = 9.98444

diagonal:  Solving for Sb, Initial residual = 0, Final residual = 0, No Iterations 0
Saturation b:  Min(Sb) = 1.1e-06 Max(Sb) = 0.98308
DICPCG:  Solving for p, Initial residual = 4.15596e-05, Final residual = 9.56508e-13, No Iterations 255
ExecutionTime = 496.344 s  ClockTime = 612 s

Coats CFL Number mean: 0.01531 max: 0.0612245
deltaT = 0.00111111
Time = 9.98556

diagonal:  Solving for Sb, Initial residual = 0, Final residual = 0, No Iterations 0
Saturation b:  Min(Sb) = 1.1e-06 Max(Sb) = 0.983081
DICPCG:  Solving for p, Initial residual = 4.20781e-05, Final residual = 9.79254e-13, No Iterations 255
ExecutionTime = 496.391 s  ClockTime = 612 s

Coats CFL Number mean: 0.015307 max: 0.0606164
deltaT = 0.00111111
Time = 9.98667

diagonal:  Solving for Sb, Initial residual = 0, Final residual = 0, No Iterations 0
Saturation b:  Min(Sb) = 1.1e-06 Max(Sb) = 0.983081
DICPCG:  Solving for p, Initial residual = 4.25891e-05, Final residual = 9.41721e-13, No Iterations 256
ExecutionTime = 496.422 s  ClockTime = 612 s

Coats CFL Number mean: 0.0153042 max: 0.0600264
deltaT = 0.00111111
Time = 9.98778

diagonal:  Solving for Sb, Initial residual = 0, Final residual = 0, No Iterations 0
Saturation b:  Min(Sb) = 1.1e-06 Max(Sb) = 0.983082
DICPCG:  Solving for p, Initial residual = 4.30891e-05, Final residual = 8.39764e-13, No Iterations 257
ExecutionTime = 496.469 s  ClockTime = 613 s

Coats CFL Number mean: 0.0153018 max: 0.059445
deltaT = 0.00111111
Time = 9.98889

diagonal:  Solving for Sb, Initial residual = 0, Final residual = 0, No Iterations 0
Saturation b:  Min(Sb) = 1.1e-06 Max(Sb) = 0.983082
DICPCG:  Solving for p, Initial residual = 4.35763e-05, Final residual = 8.6676e-13, No Iterations 257
ExecutionTime = 496.516 s  ClockTime = 613 s

Coats CFL Number mean: 0.0152997 max: 0.0588717
deltaT = 0.00111111
Time = 9.99

diagonal:  Solving for Sb, Initial residual = 0, Final residual = 0, No Iterations 0
Saturation b:  Min(Sb) = 1.1e-06 Max(Sb) = 0.983083
DICPCG:  Solving for p, Initial residual = 4.40454e-05, Final residual = 9.25772e-13, No Iterations 257
ExecutionTime = 496.656 s  ClockTime = 613 s

Coats CFL Number mean: 0.015298 max: 0.0583171
deltaT = 0.00111111
Time = 9.99111

diagonal:  Solving for Sb, Initial residual = 0, Final residual = 0, No Iterations 0
Saturation b:  Min(Sb) = 1.1e-06 Max(Sb) = 0.983083
DICPCG:  Solving for p, Initial residual = 4.4493e-05, Final residual = 7.65777e-13, No Iterations 258
ExecutionTime = 496.703 s  ClockTime = 613 s

Coats CFL Number mean: 0.0152967 max: 0.0583106
deltaT = 0.00111111
Time = 9.99222

diagonal:  Solving for Sb, Initial residual = 0, Final residual = 0, No Iterations 0
Saturation b:  Min(Sb) = 1.1e-06 Max(Sb) = 0.983084
DICPCG:  Solving for p, Initial residual = 4.4916e-05, Final residual = 9.58333e-13, No Iterations 257
ExecutionTime = 496.766 s  ClockTime = 613 s

Coats CFL Number mean: 0.0152959 max: 0.058304
deltaT = 0.00111111
Time = 9.99333

diagonal:  Solving for Sb, Initial residual = 0, Final residual = 0, No Iterations 0
Saturation b:  Min(Sb) = 1.1e-06 Max(Sb) = 0.983084
DICPCG:  Solving for p, Initial residual = 4.53103e-05, Final residual = 9.99742e-13, No Iterations 257
ExecutionTime = 496.812 s  ClockTime = 613 s

Coats CFL Number mean: 0.0152955 max: 0.0582975
deltaT = 0.00111111
Time = 9.99444

diagonal:  Solving for Sb, Initial residual = 0, Final residual = 0, No Iterations 0
Saturation b:  Min(Sb) = 1.1e-06 Max(Sb) = 0.983085
DICPCG:  Solving for p, Initial residual = 4.56682e-05, Final residual = 8.5302e-13, No Iterations 258
ExecutionTime = 496.859 s  ClockTime = 613 s

Coats CFL Number mean: 0.0152956 max: 0.058291
deltaT = 0.00111111
Time = 9.99556

diagonal:  Solving for Sb, Initial residual = 0, Final residual = 0, No Iterations 0
Saturation b:  Min(Sb) = 1.1e-06 Max(Sb) = 0.983085
DICPCG:  Solving for p, Initial residual = 4.59874e-05, Final residual = 8.98136e-13, No Iterations 258
ExecutionTime = 496.906 s  ClockTime = 613 s

Coats CFL Number mean: 0.0152962 max: 0.0582844
deltaT = 0.00111111
Time = 9.99667

diagonal:  Solving for Sb, Initial residual = 0, Final residual = 0, No Iterations 0
Saturation b:  Min(Sb) = 1.1e-06 Max(Sb) = 0.983086
DICPCG:  Solving for p, Initial residual = 4.6258e-05, Final residual = 9.92302e-13, No Iterations 258
ExecutionTime = 496.953 s  ClockTime = 613 s

Coats CFL Number mean: 0.0152973 max: 0.0582779
deltaT = 0.00111111
Time = 9.99778

diagonal:  Solving for Sb, Initial residual = 0, Final residual = 0, No Iterations 0
Saturation b:  Min(Sb) = 1.1e-06 Max(Sb) = 0.983086
DICPCG:  Solving for p, Initial residual = 4.64759e-05, Final residual = 8.55667e-13, No Iterations 259
ExecutionTime = 497 s  ClockTime = 613 s

Coats CFL Number mean: 0.0152989 max: 0.0582714
deltaT = 0.00111111
Time = 9.99889

diagonal:  Solving for Sb, Initial residual = 0, Final residual = 0, No Iterations 0
Saturation b:  Min(Sb) = 1.1e-06 Max(Sb) = 0.983087
DICPCG:  Solving for p, Initial residual = 4.66352e-05, Final residual = 8.33045e-13, No Iterations 259
ExecutionTime = 497.047 s  ClockTime = 613 s

Coats CFL Number mean: 0.015301 max: 0.0582649
deltaT = 0.00111111
Time = 10

diagonal:  Solving for Sb, Initial residual = 0, Final residual = 0, No Iterations 0
Saturation b:  Min(Sb) = 1.1e-06 Max(Sb) = 0.983087
DICPCG:  Solving for p, Initial residual = 4.67307e-05, Final residual = 8.88067e-13, No Iterations 259
ExecutionTime = 497.188 s  ClockTime = 614 s

End

Finalising parallel run
