/*---------------------------------------------------------------------------*\
  =========                 |
  \\      /  F ield         | OpenFOAM: The Open Source CFD Toolbox
   \\    /   O peration     | Website:  https://openfoam.org
    \\  /    A nd           | Version:  11
     \\/     M anipulation  |
\*---------------------------------------------------------------------------*/
Build  : 11-d5b4d966c3c5
Exec   : foamRun
Date   : Feb 13 2024
Time   : 13:15:43
Host   : "ip-172-31-21-100"
PID    : 41402
I/O    : uncollated
Case   : /home/ubuntu/OpenFOAM/ubuntu-11/run/porousBlockage
nProcs : 1
sigFpe : Enabling floating point exception trapping (FOAM_SIGFPE).
fileModificationChecking : Monitoring run-time modified files using timeStampMaster (fileModificationSkew 10)
allowSystemOperations : Allowing user-supplied system call operations

// * * * * * * * * * * * * * * * * * * * * * * * * * * * * * * * * * * * * * //
Create time

Create mesh for time = 0

Selecting solver incompressibleFluid
Selecting viscosity model constant
Selecting turbulence model type laminar
Selecting laminar stress model Stokes
No MRF models present

Courant Number mean: 0.4 max: 0.4
Creating fvModels from "constant/fvModels"

Selecting finite volume model type explicitPorositySource
    Name: porosity
    - selecting cells using cellZone porousBlockage
    - selected 64 cell(s) with volume 0.2
Porosity region porosity:
    selecting model: DarcyForchheimer
    creating porous zone: porousBlockage

PIMPLE: No convergence criteria found


PIMPLE: Operating solver in transient mode with 1 outer corrector
PIMPLE: Operating solver in PISO mode



Starting time loop

Courant Number mean: 0.4 max: 0.4
Time = 0.05s

smoothSolver:  Solving for Ux, Initial residual = 1, Final residual = 8.31272e-06, No Iterations 5
smoothSolver:  Solving for Uy, Initial residual = 0, Final residual = 0, No Iterations 0
GAMG:  Solving for p, Initial residual = 1, Final residual = 0.0740258, No Iterations 2
time step continuity errors : sum local = 3.56028e-05, global = -3.00413e-06
GAMG:  Solving for p, Initial residual = 0.0643602, Final residual = 6.51169e-07, No Iterations 7
time step continuity errors : sum local = 1.45052e-09, global = -1.17312e-10, cumulative = -1.17312e-10
ExecutionTime = 0.097469 s  ClockTime = 0 s

Courant Number mean: 0.401836 max: 0.437197
Time = 0.1s

smoothSolver:  Solving for Ux, Initial residual = 0.319586, Final residual = 9.28771e-06, No Iterations 5
smoothSolver:  Solving for Uy, Initial residual = 0.330255, Final residual = 1.62335e-06, No Iterations 6
GAMG:  Solving for p, Initial residual = 0.033462, Final residual = 0.000857558, No Iterations 2
time step continuity errors : sum local = 2.40494e-06, global = 5.20592e-07
GAMG:  Solving for p, Initial residual = 0.00478222, Final residual = 3.85462e-07, No Iterations 6
time step continuity errors : sum local = 1.01501e-09, global = 3.58729e-10, cumulative = 2.41417e-10
ExecutionTime = 0.100482 s  ClockTime = 0 s

Courant Number mean: 0.403514 max: 0.468703
Time = 0.15s

smoothSolver:  Solving for Ux, Initial residual = 0.181968, Final residual = 5.77687e-06, No Iterations 5
smoothSolver:  Solving for Uy, Initial residual = 0.189971, Final residual = 7.70723e-06, No Iterations 5
GAMG:  Solving for p, Initial residual = 0.0287178, Final residual = 0.00100899, No Iterations 2
time step continuity errors : sum local = 2.65015e-06, global = 2.07327e-07
GAMG:  Solving for p, Initial residual = 0.00447196, Final residual = 1.48131e-07, No Iterations 6
time step continuity errors : sum local = 3.82073e-10, global = 1.20408e-10, cumulative = 3.61825e-10
ExecutionTime = 0.103224 s  ClockTime = 0 s

Courant Number mean: 0.405058 max: 0.494851
Time = 0.2s

smoothSolver:  Solving for Ux, Initial residual = 0.12395, Final residual = 4.35642e-06, No Iterations 5
smoothSolver:  Solving for Uy, Initial residual = 0.13032, Final residual = 5.96055e-06, No Iterations 5
GAMG:  Solving for p, Initial residual = 0.0269335, Final residual = 0.00102523, No Iterations 2
time step continuity errors : sum local = 2.63126e-06, global = 2.05845e-07
GAMG:  Solving for p, Initial residual = 0.00449961, Final residual = 1.53792e-07, No Iterations 6
time step continuity errors : sum local = 3.86659e-10, global = 1.19938e-10, cumulative = 4.81763e-10
ExecutionTime = 0.105985 s  ClockTime = 0 s

Courant Number mean: 0.406473 max: 0.521623
Time = 0.25s

smoothSolver:  Solving for Ux, Initial residual = 0.0920029, Final residual = 3.56143e-06, No Iterations 5
smoothSolver:  Solving for Uy, Initial residual = 0.0970085, Final residual = 5.01617e-06, No Iterations 5
GAMG:  Solving for p, Initial residual = 0.0265668, Final residual = 0.00108176, No Iterations 2
time step continuity errors : sum local = 2.70098e-06, global = 1.88952e-07
GAMG:  Solving for p, Initial residual = 0.00450141, Final residual = 1.82378e-07, No Iterations 6
time step continuity errors : sum local = 4.46259e-10, global = 1.29761e-10, cumulative = 6.11524e-10
ExecutionTime = 0.108747 s  ClockTime = 0 s

Courant Number mean: 0.407767 max: 0.545236
Time = 0.3s

smoothSolver:  Solving for Ux, Initial residual = 0.0719663, Final residual = 3.03667e-06, No Iterations 5
smoothSolver:  Solving for Uy, Initial residual = 0.0762853, Final residual = 4.4308e-06, No Iterations 5
GAMG:  Solving for p, Initial residual = 0.0266089, Final residual = 0.00113292, No Iterations 2
time step continuity errors : sum local = 2.75227e-06, global = 1.72228e-07
GAMG:  Solving for p, Initial residual = 0.00438425, Final residual = 2.36059e-07, No Iterations 6
time step continuity errors : sum local = 5.63439e-10, global = 1.60908e-10, cumulative = 7.72432e-10
ExecutionTime = 0.111506 s  ClockTime = 0 s

Courant Number mean: 0.408953 max: 0.565568
Time = 0.35s

smoothSolver:  Solving for Ux, Initial residual = 0.05835, Final residual = 2.69222e-06, No Iterations 5
smoothSolver:  Solving for Uy, Initial residual = 0.062577, Final residual = 3.99436e-06, No Iterations 5
GAMG:  Solving for p, Initial residual = 0.0268525, Final residual = 0.00118169, No Iterations 2
time step continuity errors : sum local = 2.80583e-06, global = 1.5667e-07
GAMG:  Solving for p, Initial residual = 0.00415492, Final residual = 2.99462e-07, No Iterations 6
time step continuity errors : sum local = 7.0188e-10, global = 1.9916e-10, cumulative = 9.71592e-10
ExecutionTime = 0.114222 s  ClockTime = 0 s

Courant Number mean: 0.410045 max: 0.582601
Time = 0.4s

smoothSolver:  Solving for Ux, Initial residual = 0.0485931, Final residual = 2.45833e-06, No Iterations 5
smoothSolver:  Solving for Uy, Initial residual = 0.0527133, Final residual = 3.65506e-06, No Iterations 5
GAMG:  Solving for p, Initial residual = 0.0263002, Final residual = 0.00123259, No Iterations 2
time step continuity errors : sum local = 2.87387e-06, global = 7.91453e-08
GAMG:  Solving for p, Initial residual = 0.00386647, Final residual = 2.07023e-07, No Iterations 6
time step continuity errors : sum local = 4.76774e-10, global = 1.26134e-10, cumulative = 1.09773e-09
ExecutionTime = 0.116997 s  ClockTime = 0 s

Courant Number mean: 0.411056 max: 0.596374
Time = 0.45s

smoothSolver:  Solving for Ux, Initial residual = 0.0414117, Final residual = 2.28294e-06, No Iterations 5
smoothSolver:  Solving for Uy, Initial residual = 0.0454165, Final residual = 3.38718e-06, No Iterations 5
GAMG:  Solving for p, Initial residual = 0.024539, Final residual = 0.00112346, No Iterations 2
time step continuity errors : sum local = 2.57864e-06, global = 1.33288e-07
GAMG:  Solving for p, Initial residual = 0.00356013, Final residual = 2.70216e-07, No Iterations 6
time step continuity errors : sum local = 6.14292e-10, global = 1.66933e-10, cumulative = 1.26466e-09
ExecutionTime = 0.119772 s  ClockTime = 0 s

Courant Number mean: 0.411989 max: 0.606983
Time = 0.5s

smoothSolver:  Solving for Ux, Initial residual = 0.0359118, Final residual = 2.16416e-06, No Iterations 5
smoothSolver:  Solving for Uy, Initial residual = 0.0397522, Final residual = 3.15888e-06, No Iterations 5
GAMG:  Solving for p, Initial residual = 0.0239499, Final residual = 0.00113933, No Iterations 2
time step continuity errors : sum local = 2.5764e-06, global = 1.18345e-07
GAMG:  Solving for p, Initial residual = 0.00328852, Final residual = 1.88798e-07, No Iterations 6
time step continuity errors : sum local = 4.23664e-10, global = 1.16952e-10, cumulative = 1.38161e-09
ExecutionTime = 0.122514 s  ClockTime = 0 s

Courant Number mean: 0.412859 max: 0.614506
Time = 0.55s

smoothSolver:  Solving for Ux, Initial residual = 0.0315949, Final residual = 2.09441e-06, No Iterations 5
smoothSolver:  Solving for Uy, Initial residual = 0.0353643, Final residual = 2.9621e-06, No Iterations 5
GAMG:  Solving for p, Initial residual = 0.0237897, Final residual = 0.00118403, No Iterations 2
time step continuity errors : sum local = 2.64595e-06, global = 1.08539e-07
GAMG:  Solving for p, Initial residual = 0.00302536, Final residual = 6.6905e-07, No Iterations 5
time step continuity errors : sum local = 1.48817e-09, global = 1.04345e-10, cumulative = 1.48596e-09
ExecutionTime = 0.125158 s  ClockTime = 0 s

Courant Number mean: 0.413672 max: 0.618989
Time = 0.6s

smoothSolver:  Solving for Ux, Initial residual = 0.0281387, Final residual = 2.03363e-06, No Iterations 5
smoothSolver:  Solving for Uy, Initial residual = 0.0319169, Final residual = 2.79579e-06, No Iterations 5
GAMG:  Solving for p, Initial residual = 0.0226667, Final residual = 0.00104267, No Iterations 2
time step continuity errors : sum local = 2.30525e-06, global = 1.07462e-07
GAMG:  Solving for p, Initial residual = 0.00301879, Final residual = 6.83981e-07, No Iterations 5
time step continuity errors : sum local = 1.50396e-09, global = 1.04473e-10, cumulative = 1.59043e-09
ExecutionTime = 0.128023 s  ClockTime = 0 s

Courant Number mean: 0.414438 max: 0.623838
Time = 0.65s

smoothSolver:  Solving for Ux, Initial residual = 0.0252993, Final residual = 1.97382e-06, No Iterations 5
smoothSolver:  Solving for Uy, Initial residual = 0.0290107, Final residual = 2.64781e-06, No Iterations 5
GAMG:  Solving for p, Initial residual = 0.0207867, Final residual = 0.00103804, No Iterations 2
time step continuity errors : sum local = 2.26418e-06, global = 9.74256e-08
GAMG:  Solving for p, Initial residual = 0.00278001, Final residual = 6.6584e-07, No Iterations 5
time step continuity errors : sum local = 1.44249e-09, global = 1.06909e-10, cumulative = 1.69734e-09
ExecutionTime = 0.130809 s  ClockTime = 0 s

Courant Number mean: 0.415162 max: 0.629231
Time = 0.7s

smoothSolver:  Solving for Ux, Initial residual = 0.0229431, Final residual = 1.90889e-06, No Iterations 5
smoothSolver:  Solving for Uy, Initial residual = 0.0265935, Final residual = 2.53059e-06, No Iterations 5
GAMG:  Solving for p, Initial residual = 0.0196942, Final residual = 0.000886715, No Iterations 2
time step continuity errors : sum local = 1.90276e-06, global = 8.87432e-08
GAMG:  Solving for p, Initial residual = 0.00263814, Final residual = 8.58974e-07, No Iterations 5
time step continuity errors : sum local = 1.82804e-09, global = 1.23345e-10, cumulative = 1.82068e-09
ExecutionTime = 0.133582 s  ClockTime = 0 s

Courant Number mean: 0.415848 max: 0.631995
Time = 0.75s

smoothSolver:  Solving for Ux, Initial residual = 0.0209809, Final residual = 1.84395e-06, No Iterations 5
smoothSolver:  Solving for Uy, Initial residual = 0.0245895, Final residual = 2.43626e-06, No Iterations 5
GAMG:  Solving for p, Initial residual = 0.0195516, Final residual = 0.000852151, No Iterations 2
time step continuity errors : sum local = 1.79547e-06, global = 8.1648e-08
GAMG:  Solving for p, Initial residual = 0.00266556, Final residual = 1.39596e-07, No Iterations 6
time step continuity errors : sum local = 2.91595e-10, global = 1.01048e-10, cumulative = 1.92173e-09
ExecutionTime = 0.136487 s  ClockTime = 0 s

Courant Number mean: 0.416496 max: 0.632213
Time = 0.8s

smoothSolver:  Solving for Ux, Initial residual = 0.0193119, Final residual = 9.58646e-06, No Iterations 4
smoothSolver:  Solving for Uy, Initial residual = 0.022946, Final residual = 2.38474e-06, No Iterations 5
GAMG:  Solving for p, Initial residual = 0.0197281, Final residual = 0.00082695, No Iterations 2
time step continuity errors : sum local = 1.70905e-06, global = 7.56671e-08
GAMG:  Solving for p, Initial residual = 0.00277035, Final residual = 1.4652e-07, No Iterations 6
time step continuity errors : sum local = 3.00185e-10, global = 1.06704e-10, cumulative = 2.02844e-09
ExecutionTime = 0.139453 s  ClockTime = 0 s

Courant Number mean: 0.417109 max: 0.636388
Time = 0.85s

smoothSolver:  Solving for Ux, Initial residual = 0.0179222, Final residual = 9.19865e-06, No Iterations 4
smoothSolver:  Solving for Uy, Initial residual = 0.0215069, Final residual = 2.34129e-06, No Iterations 5
GAMG:  Solving for p, Initial residual = 0.0189238, Final residual = 0.000712321, No Iterations 2
time step continuity errors : sum local = 1.44468e-06, global = 7.14448e-08
GAMG:  Solving for p, Initial residual = 0.00264524, Final residual = 2.38707e-07, No Iterations 6
time step continuity errors : sum local = 4.8032e-10, global = 1.50254e-10, cumulative = 2.17869e-09
ExecutionTime = 0.142299 s  ClockTime = 0 s

Courant Number mean: 0.417686 max: 0.640634
Time = 0.9s

smoothSolver:  Solving for Ux, Initial residual = 0.0167305, Final residual = 8.85191e-06, No Iterations 4
smoothSolver:  Solving for Uy, Initial residual = 0.0202438, Final residual = 2.30109e-06, No Iterations 5
GAMG:  Solving for p, Initial residual = 0.019763, Final residual = 0.000682946, No Iterations 2
time step continuity errors : sum local = 1.36134e-06, global = 6.82746e-08
GAMG:  Solving for p, Initial residual = 0.00262883, Final residual = 3.36565e-07, No Iterations 6
time step continuity errors : sum local = 6.65943e-10, global = 1.69932e-10, cumulative = 2.34862e-09
ExecutionTime = 0.14519 s  ClockTime = 0 s

Courant Number mean: 0.418233 max: 0.644162
Time = 0.95s

smoothSolver:  Solving for Ux, Initial residual = 0.0156982, Final residual = 8.54406e-06, No Iterations 4
smoothSolver:  Solving for Uy, Initial residual = 0.0191599, Final residual = 2.26564e-06, No Iterations 5
GAMG:  Solving for p, Initial residual = 0.0194749, Final residual = 0.000681919, No Iterations 2
time step continuity errors : sum local = 1.34029e-06, global = 6.50267e-08
GAMG:  Solving for p, Initial residual = 0.002579, Final residual = 3.47916e-07, No Iterations 6
time step continuity errors : sum local = 6.80706e-10, global = 1.67012e-10, cumulative = 2.51563e-09
ExecutionTime = 0.14814 s  ClockTime = 0 s

Courant Number mean: 0.418744 max: 0.64712
Time = 1s

smoothSolver:  Solving for Ux, Initial residual = 0.0148246, Final residual = 8.28665e-06, No Iterations 4
smoothSolver:  Solving for Uy, Initial residual = 0.0182945, Final residual = 2.21908e-06, No Iterations 5
GAMG:  Solving for p, Initial residual = 0.0201288, Final residual = 0.000489271, No Iterations 2
time step continuity errors : sum local = 9.50427e-07, global = 6.29429e-08
GAMG:  Solving for p, Initial residual = 0.00286573, Final residual = 3.97771e-07, No Iterations 6
time step continuity errors : sum local = 7.69111e-10, global = 1.86958e-10, cumulative = 2.70259e-09
ExecutionTime = 0.154678 s  ClockTime = 1 s

Courant Number mean: 0.419222 max: 0.649607
Time = 1.05s

smoothSolver:  Solving for Ux, Initial residual = 0.0140702, Final residual = 8.06488e-06, No Iterations 4
smoothSolver:  Solving for Uy, Initial residual = 0.017453, Final residual = 2.17846e-06, No Iterations 5
GAMG:  Solving for p, Initial residual = 0.0198746, Final residual = 0.000495612, No Iterations 2
time step continuity errors : sum local = 9.50923e-07, global = 6.10932e-08
GAMG:  Solving for p, Initial residual = 0.00268572, Final residual = 3.22169e-07, No Iterations 6
time step continuity errors : sum local = 6.14512e-10, global = 1.7185e-10, cumulative = 2.87444e-09
ExecutionTime = 0.157632 s  ClockTime = 1 s

Courant Number mean: 0.4197 max: 0.651761
Time = 1.1s

smoothSolver:  Solving for Ux, Initial residual = 0.0133713, Final residual = 7.86008e-06, No Iterations 4
smoothSolver:  Solving for Uy, Initial residual = 0.0167494, Final residual = 2.15804e-06, No Iterations 5
GAMG:  Solving for p, Initial residual = 0.0196556, Final residual = 0.000534053, No Iterations 2
time step continuity errors : sum local = 1.01125e-06, global = 5.86712e-08
GAMG:  Solving for p, Initial residual = 0.00262325, Final residual = 3.16479e-07, No Iterations 6
time step continuity errors : sum local = 5.96383e-10, global = 1.66158e-10, cumulative = 3.0406e-09
ExecutionTime = 0.160525 s  ClockTime = 1 s

Courant Number mean: 0.420169 max: 0.653665
Time = 1.15s

smoothSolver:  Solving for Ux, Initial residual = 0.0127623, Final residual = 7.65836e-06, No Iterations 4
smoothSolver:  Solving for Uy, Initial residual = 0.0161205, Final residual = 2.1388e-06, No Iterations 5
GAMG:  Solving for p, Initial residual = 0.0232721, Final residual = 0.000587786, No Iterations 2
time step continuity errors : sum local = 1.10183e-06, global = 5.61219e-08
GAMG:  Solving for p, Initial residual = 0.00268477, Final residual = 1.99539e-07, No Iterations 6
time step continuity errors : sum local = 3.73101e-10, global = 1.14357e-10, cumulative = 3.15496e-09
ExecutionTime = 0.163417 s  ClockTime = 1 s

Courant Number mean: 0.42062 max: 0.655362
Time = 1.2s

smoothSolver:  Solving for Ux, Initial residual = 0.0122203, Final residual = 7.48694e-06, No Iterations 4
smoothSolver:  Solving for Uy, Initial residual = 0.0155227, Final residual = 2.11985e-06, No Iterations 5
GAMG:  Solving for p, Initial residual = 0.0180101, Final residual = 0.000486568, No Iterations 2
time step continuity errors : sum local = 9.0625e-07, global = 5.53228e-08
GAMG:  Solving for p, Initial residual = 0.00240355, Final residual = 1.62342e-07, No Iterations 6
time step continuity errors : sum local = 3.01944e-10, global = 9.20801e-11, cumulative = 3.24704e-09
ExecutionTime = 0.166259 s  ClockTime = 1 s

Courant Number mean: 0.421042 max: 0.656902
Time = 1.25s

smoothSolver:  Solving for Ux, Initial residual = 0.01173, Final residual = 7.31842e-06, No Iterations 4
smoothSolver:  Solving for Uy, Initial residual = 0.0150378, Final residual = 2.09143e-06, No Iterations 5
GAMG:  Solving for p, Initial residual = 0.0183193, Final residual = 0.000499787, No Iterations 2
time step continuity errors : sum local = 9.26888e-07, global = 4.50737e-08
GAMG:  Solving for p, Initial residual = 0.00241114, Final residual = 9.06803e-07, No Iterations 5
time step continuity errors : sum local = 1.67965e-09, global = 3.03765e-11, cumulative = 3.27741e-09
ExecutionTime = 0.169072 s  ClockTime = 1 s

Courant Number mean: 0.421445 max: 0.658322
Time = 1.3s

smoothSolver:  Solving for Ux, Initial residual = 0.0112827, Final residual = 7.17181e-06, No Iterations 4
smoothSolver:  Solving for Uy, Initial residual = 0.0146233, Final residual = 2.07217e-06, No Iterations 5
GAMG:  Solving for p, Initial residual = 0.0194583, Final residual = 0.000525282, No Iterations 2
time step continuity errors : sum local = 9.71372e-07, global = 3.71864e-08
GAMG:  Solving for p, Initial residual = 0.00244412, Final residual = 7.47953e-07, No Iterations 5
time step continuity errors : sum local = 1.38214e-09, global = 1.10884e-11, cumulative = 3.2885e-09
ExecutionTime = 0.171838 s  ClockTime = 1 s

Courant Number mean: 0.421823 max: 0.65965
Time = 1.35s

smoothSolver:  Solving for Ux, Initial residual = 0.0108732, Final residual = 7.02589e-06, No Iterations 4
smoothSolver:  Solving for Uy, Initial residual = 0.0142266, Final residual = 2.05261e-06, No Iterations 5
GAMG:  Solving for p, Initial residual = 0.0191894, Final residual = 0.00055637, No Iterations 2
time step continuity errors : sum local = 1.02365e-06, global = 4.39056e-08
GAMG:  Solving for p, Initial residual = 0.00248377, Final residual = 6.21708e-07, No Iterations 5
time step continuity errors : sum local = 1.1401e-09, global = 5.42737e-12, cumulative = 3.29393e-09
ExecutionTime = 0.174575 s  ClockTime = 1 s

Courant Number mean: 0.422198 max: 0.66088
Time = 1.4s

smoothSolver:  Solving for Ux, Initial residual = 0.0105029, Final residual = 6.90505e-06, No Iterations 4
smoothSolver:  Solving for Uy, Initial residual = 0.0137956, Final residual = 2.03903e-06, No Iterations 5
GAMG:  Solving for p, Initial residual = 0.0212989, Final residual = 0.000604837, No Iterations 2
time step continuity errors : sum local = 1.10493e-06, global = 4.86813e-08
GAMG:  Solving for p, Initial residual = 0.00265057, Final residual = 6.23381e-07, No Iterations 5
time step continuity errors : sum local = 1.13665e-09, global = 4.46933e-13, cumulative = 3.29438e-09
ExecutionTime = 0.177384 s  ClockTime = 1 s

Courant Number mean: 0.422579 max: 0.66202
Time = 1.45s

smoothSolver:  Solving for Ux, Initial residual = 0.0101766, Final residual = 6.80637e-06, No Iterations 4
smoothSolver:  Solving for Uy, Initial residual = 0.0134279, Final residual = 2.02325e-06, No Iterations 5
GAMG:  Solving for p, Initial residual = 0.0211602, Final residual = 0.00056274, No Iterations 2
time step continuity errors : sum local = 1.02483e-06, global = 6.86308e-08
GAMG:  Solving for p, Initial residual = 0.00266138, Final residual = 5.36827e-07, No Iterations 5
time step continuity errors : sum local = 9.78768e-10, global = 5.84606e-11, cumulative = 3.35284e-09
ExecutionTime = 0.180143 s  ClockTime = 1 s

Courant Number mean: 0.422986 max: 0.66309
Time = 1.5s

smoothSolver:  Solving for Ux, Initial residual = 0.00986929, Final residual = 6.70653e-06, No Iterations 4
smoothSolver:  Solving for Uy, Initial residual = 0.0130958, Final residual = 9.99931e-06, No Iterations 4
GAMG:  Solving for p, Initial residual = 0.0246183, Final residual = 0.000675551, No Iterations 2
time step continuity errors : sum local = 1.22641e-06, global = 2.67148e-08
GAMG:  Solving for p, Initial residual = 0.00302889, Final residual = 6.72674e-07, No Iterations 5
time step continuity errors : sum local = 1.22096e-09, global = 4.93152e-11, cumulative = 3.40215e-09
ExecutionTime = 0.182864 s  ClockTime = 1 s

Courant Number mean: 0.423409 max: 0.664896
Time = 1.55s

smoothSolver:  Solving for Ux, Initial residual = 0.00959108, Final residual = 6.63363e-06, No Iterations 4
smoothSolver:  Solving for Uy, Initial residual = 0.0128358, Final residual = 9.94686e-06, No Iterations 4
GAMG:  Solving for p, Initial residual = 0.0200759, Final residual = 0.000563377, No Iterations 2
time step continuity errors : sum local = 1.02039e-06, global = 4.42412e-08
GAMG:  Solving for p, Initial residual = 0.0027721, Final residual = 5.39287e-07, No Iterations 5
time step continuity errors : sum local = 9.76996e-10, global = 7.45791e-11, cumulative = 3.47673e-09
ExecutionTime = 0.185579 s  ClockTime = 1 s

Courant Number mean: 0.423832 max: 0.667284
Time = 1.6s

smoothSolver:  Solving for Ux, Initial residual = 0.00932894, Final residual = 6.55569e-06, No Iterations 4
smoothSolver:  Solving for Uy, Initial residual = 0.012594, Final residual = 9.87072e-06, No Iterations 4
GAMG:  Solving for p, Initial residual = 0.0190848, Final residual = 0.000515891, No Iterations 2
time step continuity errors : sum local = 9.32117e-07, global = 4.92389e-08
GAMG:  Solving for p, Initial residual = 0.00269676, Final residual = 4.98318e-07, No Iterations 5
time step continuity errors : sum local = 8.99749e-10, global = 6.16913e-11, cumulative = 3.53842e-09
ExecutionTime = 0.188454 s  ClockTime = 1 s

Courant Number mean: 0.424246 max: 0.669534
Time = 1.65s

smoothSolver:  Solving for Ux, Initial residual = 0.00909561, Final residual = 6.48344e-06, No Iterations 4
smoothSolver:  Solving for Uy, Initial residual = 0.0123614, Final residual = 9.80867e-06, No Iterations 4
GAMG:  Solving for p, Initial residual = 0.0201997, Final residual = 0.000557452, No Iterations 2
time step continuity errors : sum local = 1.00512e-06, global = 3.39892e-08
GAMG:  Solving for p, Initial residual = 0.00259008, Final residual = 6.80842e-07, No Iterations 5
time step continuity errors : sum local = 1.22986e-09, global = 8.24252e-11, cumulative = 3.62085e-09
ExecutionTime = 0.191445 s  ClockTime = 1 s

Courant Number mean: 0.424651 max: 0.671645
Time = 1.7s

smoothSolver:  Solving for Ux, Initial residual = 0.00888872, Final residual = 6.43719e-06, No Iterations 4
smoothSolver:  Solving for Uy, Initial residual = 0.012195, Final residual = 9.74032e-06, No Iterations 4
GAMG:  Solving for p, Initial residual = 0.0206954, Final residual = 0.000630406, No Iterations 2
time step continuity errors : sum local = 1.13522e-06, global = 2.88642e-08
GAMG:  Solving for p, Initial residual = 0.00264295, Final residual = 7.60855e-07, No Iterations 5
time step continuity errors : sum local = 1.37002e-09, global = 7.85702e-11, cumulative = 3.69942e-09
ExecutionTime = 0.194153 s  ClockTime = 1 s

Courant Number mean: 0.425049 max: 0.673608
Time = 1.75s

smoothSolver:  Solving for Ux, Initial residual = 0.00871074, Final residual = 6.39705e-06, No Iterations 4
smoothSolver:  Solving for Uy, Initial residual = 0.0119851, Final residual = 9.68503e-06, No Iterations 4
GAMG:  Solving for p, Initial residual = 0.021254, Final residual = 0.000626238, No Iterations 2
time step continuity errors : sum local = 1.12504e-06, global = 3.58077e-08
GAMG:  Solving for p, Initial residual = 0.00268065, Final residual = 6.51696e-07, No Iterations 5
time step continuity errors : sum local = 1.17115e-09, global = 5.59811e-11, cumulative = 3.7554e-09
ExecutionTime = 0.196905 s  ClockTime = 1 s

Courant Number mean: 0.425451 max: 0.675424
Time = 1.8s

smoothSolver:  Solving for Ux, Initial residual = 0.00855155, Final residual = 6.34335e-06, No Iterations 4
smoothSolver:  Solving for Uy, Initial residual = 0.011765, Final residual = 9.58861e-06, No Iterations 4
GAMG:  Solving for p, Initial residual = 0.0207904, Final residual = 0.000581729, No Iterations 2
time step continuity errors : sum local = 1.04488e-06, global = 4.2436e-08
GAMG:  Solving for p, Initial residual = 0.00274743, Final residual = 5.5153e-07, No Iterations 5
time step continuity errors : sum local = 9.94005e-10, global = 7.01746e-11, cumulative = 3.82557e-09
ExecutionTime = 0.199724 s  ClockTime = 1 s

Courant Number mean: 0.425859 max: 0.677098
Time = 1.85s

smoothSolver:  Solving for Ux, Initial residual = 0.00841164, Final residual = 6.3012e-06, No Iterations 4
smoothSolver:  Solving for Uy, Initial residual = 0.0116061, Final residual = 9.49792e-06, No Iterations 4
GAMG:  Solving for p, Initial residual = 0.0239193, Final residual = 0.000686371, No Iterations 2
time step continuity errors : sum local = 1.23278e-06, global = 5.20195e-08
GAMG:  Solving for p, Initial residual = 0.00297614, Final residual = 8.74326e-07, No Iterations 5
time step continuity errors : sum local = 1.5754e-09, global = 1.003e-10, cumulative = 3.92587e-09
ExecutionTime = 0.202425 s  ClockTime = 1 s

Courant Number mean: 0.426259 max: 0.678647
Time = 1.9s

smoothSolver:  Solving for Ux, Initial residual = 0.00828152, Final residual = 6.27616e-06, No Iterations 4
smoothSolver:  Solving for Uy, Initial residual = 0.0114942, Final residual = 9.48063e-06, No Iterations 4
GAMG:  Solving for p, Initial residual = 0.0192209, Final residual = 0.000548282, No Iterations 2
time step continuity errors : sum local = 9.86786e-07, global = 3.10797e-08
GAMG:  Solving for p, Initial residual = 0.00289034, Final residual = 6.49921e-07, No Iterations 5
time step continuity errors : sum local = 1.17264e-09, global = 6.50302e-11, cumulative = 3.9909e-09
ExecutionTime = 0.205163 s  ClockTime = 1 s

Courant Number mean: 0.426664 max: 0.680061
Time = 1.95s

smoothSolver:  Solving for Ux, Initial residual = 0.00814568, Final residual = 6.23235e-06, No Iterations 4
smoothSolver:  Solving for Uy, Initial residual = 0.0113296, Final residual = 9.39006e-06, No Iterations 4
GAMG:  Solving for p, Initial residual = 0.0195963, Final residual = 0.000545699, No Iterations 2
time step continuity errors : sum local = 9.82733e-07, global = 3.19845e-08
GAMG:  Solving for p, Initial residual = 0.00308819, Final residual = 7.05242e-07, No Iterations 5
time step continuity errors : sum local = 1.2719e-09, global = 7.1834e-11, cumulative = 4.06274e-09
ExecutionTime = 0.208013 s  ClockTime = 1 s

Courant Number mean: 0.427058 max: 0.681356
Time = 2s

smoothSolver:  Solving for Ux, Initial residual = 0.00801434, Final residual = 6.18331e-06, No Iterations 4
smoothSolver:  Solving for Uy, Initial residual = 0.0112009, Final residual = 9.33504e-06, No Iterations 4
GAMG:  Solving for p, Initial residual = 0.0197459, Final residual = 0.000536958, No Iterations 2
time step continuity errors : sum local = 9.68025e-07, global = 3.31043e-08
GAMG:  Solving for p, Initial residual = 0.00271179, Final residual = 5.12086e-07, No Iterations 5
time step continuity errors : sum local = 9.25921e-10, global = 4.4895e-11, cumulative = 4.10763e-09
ExecutionTime = 0.214342 s  ClockTime = 1 s

Courant Number mean: 0.427442 max: 0.682527
Time = 2.05s

smoothSolver:  Solving for Ux, Initial residual = 0.00789313, Final residual = 6.13772e-06, No Iterations 4
smoothSolver:  Solving for Uy, Initial residual = 0.0110724, Final residual = 9.23324e-06, No Iterations 4
GAMG:  Solving for p, Initial residual = 0.0190261, Final residual = 0.000555174, No Iterations 2
time step continuity errors : sum local = 1.00206e-06, global = 2.98959e-08
GAMG:  Solving for p, Initial residual = 0.00266216, Final residual = 7.5435e-07, No Iterations 5
time step continuity errors : sum local = 1.36465e-09, global = 6.94633e-11, cumulative = 4.1771e-09
ExecutionTime = 0.217153 s  ClockTime = 1 s

Courant Number mean: 0.427827 max: 0.683569
Time = 2.1s

smoothSolver:  Solving for Ux, Initial residual = 0.00779404, Final residual = 6.10545e-06, No Iterations 4
smoothSolver:  Solving for Uy, Initial residual = 0.0109393, Final residual = 9.1776e-06, No Iterations 4
GAMG:  Solving for p, Initial residual = 0.0197275, Final residual = 0.000576668, No Iterations 2
time step continuity errors : sum local = 1.04007e-06, global = 5.74231e-08
GAMG:  Solving for p, Initial residual = 0.00269747, Final residual = 7.07478e-07, No Iterations 5
time step continuity errors : sum local = 1.27922e-09, global = 7.00299e-11, cumulative = 4.24713e-09
ExecutionTime = 0.219895 s  ClockTime = 1 s

Courant Number mean: 0.428211 max: 0.684487
Time = 2.15s

smoothSolver:  Solving for Ux, Initial residual = 0.00769788, Final residual = 6.08861e-06, No Iterations 4
smoothSolver:  Solving for Uy, Initial residual = 0.0108244, Final residual = 9.15112e-06, No Iterations 4
GAMG:  Solving for p, Initial residual = 0.0192947, Final residual = 0.000539919, No Iterations 2
time step continuity errors : sum local = 9.74415e-07, global = 3.22709e-08
GAMG:  Solving for p, Initial residual = 0.00270936, Final residual = 5.47876e-07, No Iterations 5
time step continuity errors : sum local = 9.90835e-10, global = 6.27936e-11, cumulative = 4.30992e-09
ExecutionTime = 0.222578 s  ClockTime = 1 s

Courant Number mean: 0.428587 max: 0.685291
Time = 2.2s

smoothSolver:  Solving for Ux, Initial residual = 0.00759135, Final residual = 6.04793e-06, No Iterations 4
smoothSolver:  Solving for Uy, Initial residual = 0.0106809, Final residual = 9.07999e-06, No Iterations 4
GAMG:  Solving for p, Initial residual = 0.019119, Final residual = 0.000534535, No Iterations 2
time step continuity errors : sum local = 9.66516e-07, global = 6.80563e-08
GAMG:  Solving for p, Initial residual = 0.00277215, Final residual = 1.11715e-07, No Iterations 6
time step continuity errors : sum local = 2.02984e-10, global = 5.22388e-11, cumulative = 4.36216e-09
ExecutionTime = 0.22544 s  ClockTime = 1 s

Courant Number mean: 0.428947 max: 0.685984
Time = 2.25s

smoothSolver:  Solving for Ux, Initial residual = 0.00748535, Final residual = 6.01241e-06, No Iterations 4
smoothSolver:  Solving for Uy, Initial residual = 0.0105383, Final residual = 8.98067e-06, No Iterations 4
GAMG:  Solving for p, Initial residual = 0.0213017, Final residual = 0.00057378, No Iterations 2
time step continuity errors : sum local = 1.04156e-06, global = 7.10964e-08
GAMG:  Solving for p, Initial residual = 0.00285387, Final residual = 1.61014e-07, No Iterations 6
time step continuity errors : sum local = 2.94095e-10, global = 8.31969e-11, cumulative = 4.44535e-09
ExecutionTime = 0.228365 s  ClockTime = 1 s

Courant Number mean: 0.429308 max: 0.686575
Time = 2.3s

smoothSolver:  Solving for Ux, Initial residual = 0.00738396, Final residual = 5.95987e-06, No Iterations 4
smoothSolver:  Solving for Uy, Initial residual = 0.0103609, Final residual = 8.87316e-06, No Iterations 4
GAMG:  Solving for p, Initial residual = 0.0217133, Final residual = 0.000554457, No Iterations 2
time step continuity errors : sum local = 1.01733e-06, global = 4.93472e-08
GAMG:  Solving for p, Initial residual = 0.00296798, Final residual = 2.56776e-07, No Iterations 6
time step continuity errors : sum local = 4.72059e-10, global = 8.09473e-11, cumulative = 4.5263e-09
ExecutionTime = 0.231223 s  ClockTime = 1 s

Courant Number mean: 0.429674 max: 0.687084
Time = 2.35s

smoothSolver:  Solving for Ux, Initial residual = 0.00728839, Final residual = 5.94091e-06, No Iterations 4
smoothSolver:  Solving for Uy, Initial residual = 0.0102964, Final residual = 8.84348e-06, No Iterations 4
GAMG:  Solving for p, Initial residual = 0.0176147, Final residual = 0.000509164, No Iterations 2
time step continuity errors : sum local = 9.42707e-07, global = 6.96097e-08
GAMG:  Solving for p, Initial residual = 0.00278105, Final residual = 8.42288e-07, No Iterations 5
time step continuity errors : sum local = 1.56329e-09, global = 6.744e-11, cumulative = 4.59374e-09
ExecutionTime = 0.234006 s  ClockTime = 1 s

Courant Number mean: 0.430042 max: 0.687513
Time = 2.4s

smoothSolver:  Solving for Ux, Initial residual = 0.00719381, Final residual = 5.90523e-06, No Iterations 4
smoothSolver:  Solving for Uy, Initial residual = 0.0102035, Final residual = 8.83034e-06, No Iterations 4
GAMG:  Solving for p, Initial residual = 0.0168166, Final residual = 0.00049441, No Iterations 2
time step continuity errors : sum local = 9.27588e-07, global = 6.9722e-08
GAMG:  Solving for p, Initial residual = 0.00254009, Final residual = 8.82046e-07, No Iterations 5
time step continuity errors : sum local = 1.6617e-09, global = 7.53622e-11, cumulative = 4.6691e-09
ExecutionTime = 0.236731 s  ClockTime = 1 s

Courant Number mean: 0.430408 max: 0.687869
Time = 2.45s

smoothSolver:  Solving for Ux, Initial residual = 0.00709529, Final residual = 5.86434e-06, No Iterations 4
smoothSolver:  Solving for Uy, Initial residual = 0.0101012, Final residual = 8.75763e-06, No Iterations 4
GAMG:  Solving for p, Initial residual = 0.0173601, Final residual = 0.000499248, No Iterations 2
time step continuity errors : sum local = 9.50945e-07, global = 7.60242e-08
GAMG:  Solving for p, Initial residual = 0.00256939, Final residual = 9.58021e-07, No Iterations 5
time step continuity errors : sum local = 1.83357e-09, global = 1.07057e-10, cumulative = 4.77616e-09
ExecutionTime = 0.239518 s  ClockTime = 1 s

Courant Number mean: 0.43075 max: 0.688246
Time = 2.5s

smoothSolver:  Solving for Ux, Initial residual = 0.00700145, Final residual = 5.82783e-06, No Iterations 4
smoothSolver:  Solving for Uy, Initial residual = 0.00996536, Final residual = 8.68135e-06, No Iterations 4
GAMG:  Solving for p, Initial residual = 0.0173828, Final residual = 0.000474032, No Iterations 2
time step continuity errors : sum local = 9.18244e-07, global = 9.10186e-08
GAMG:  Solving for p, Initial residual = 0.00254163, Final residual = 1.43757e-07, No Iterations 6
time step continuity errors : sum local = 2.8032e-10, global = 9.50497e-11, cumulative = 4.87121e-09
ExecutionTime = 0.242361 s  ClockTime = 1 s

Courant Number mean: 0.431076 max: 0.688585
Time = 2.55s

smoothSolver:  Solving for Ux, Initial residual = 0.00690195, Final residual = 5.77775e-06, No Iterations 4
smoothSolver:  Solving for Uy, Initial residual = 0.00982376, Final residual = 8.56433e-06, No Iterations 4
GAMG:  Solving for p, Initial residual = 0.0172507, Final residual = 0.000481887, No Iterations 2
time step continuity errors : sum local = 9.46689e-07, global = 5.71374e-08
GAMG:  Solving for p, Initial residual = 0.00250303, Final residual = 9.8773e-07, No Iterations 5
time step continuity errors : sum local = 1.94249e-09, global = 1.05968e-10, cumulative = 4.97718e-09
ExecutionTime = 0.24509 s  ClockTime = 1 s

Courant Number mean: 0.431396 max: 0.68886
Time = 2.6s

smoothSolver:  Solving for Ux, Initial residual = 0.00681233, Final residual = 5.75703e-06, No Iterations 4
smoothSolver:  Solving for Uy, Initial residual = 0.00971843, Final residual = 8.51243e-06, No Iterations 4
GAMG:  Solving for p, Initial residual = 0.0179345, Final residual = 0.000473507, No Iterations 2
time step continuity errors : sum local = 9.36651e-07, global = 7.87956e-08
GAMG:  Solving for p, Initial residual = 0.00271419, Final residual = 8.72049e-07, No Iterations 5
time step continuity errors : sum local = 1.72886e-09, global = 1.15533e-10, cumulative = 5.09271e-09
ExecutionTime = 0.24792 s  ClockTime = 1 s

Courant Number mean: 0.431719 max: 0.68909
Time = 2.65s

smoothSolver:  Solving for Ux, Initial residual = 0.0067158, Final residual = 5.71234e-06, No Iterations 4
smoothSolver:  Solving for Uy, Initial residual = 0.00962545, Final residual = 8.50065e-06, No Iterations 4
GAMG:  Solving for p, Initial residual = 0.017679, Final residual = 0.000454237, No Iterations 2
time step continuity errors : sum local = 9.07925e-07, global = 8.36912e-08
GAMG:  Solving for p, Initial residual = 0.0026505, Final residual = 9.80836e-07, No Iterations 5
time step continuity errors : sum local = 1.96703e-09, global = 1.32182e-10, cumulative = 5.22489e-09
ExecutionTime = 0.250619 s  ClockTime = 1 s

Courant Number mean: 0.432064 max: 0.689277
Time = 2.7s

smoothSolver:  Solving for Ux, Initial residual = 0.00662, Final residual = 5.66637e-06, No Iterations 4
smoothSolver:  Solving for Uy, Initial residual = 0.0095127, Final residual = 8.41812e-06, No Iterations 4
GAMG:  Solving for p, Initial residual = 0.018019, Final residual = 0.000467884, No Iterations 2
time step continuity errors : sum local = 9.45149e-07, global = 8.5478e-08
GAMG:  Solving for p, Initial residual = 0.0027215, Final residual = 9.55348e-07, No Iterations 5
time step continuity errors : sum local = 1.93483e-09, global = 1.28712e-10, cumulative = 5.3536e-09
ExecutionTime = 0.253367 s  ClockTime = 1 s

Courant Number mean: 0.432397 max: 0.689429
Time = 2.75s

smoothSolver:  Solving for Ux, Initial residual = 0.00653704, Final residual = 5.6296e-06, No Iterations 4
smoothSolver:  Solving for Uy, Initial residual = 0.00938139, Final residual = 8.39005e-06, No Iterations 4
GAMG:  Solving for p, Initial residual = 0.0153302, Final residual = 0.000423142, No Iterations 2
time step continuity errors : sum local = 8.64745e-07, global = 9.18694e-08
GAMG:  Solving for p, Initial residual = 0.00241181, Final residual = 9.69025e-07, No Iterations 5
time step continuity errors : sum local = 1.9896e-09, global = 1.39967e-10, cumulative = 5.49357e-09
ExecutionTime = 0.256103 s  ClockTime = 1 s

Courant Number mean: 0.432718 max: 0.689553
Time = 2.8s

smoothSolver:  Solving for Ux, Initial residual = 0.00645001, Final residual = 5.58746e-06, No Iterations 4
smoothSolver:  Solving for Uy, Initial residual = 0.00926492, Final residual = 8.2923e-06, No Iterations 4
GAMG:  Solving for p, Initial residual = 0.0144436, Final residual = 0.000408993, No Iterations 2
time step continuity errors : sum local = 8.46952e-07, global = 9.23588e-08
GAMG:  Solving for p, Initial residual = 0.0023536, Final residual = 9.89565e-07, No Iterations 5
time step continuity errors : sum local = 2.05777e-09, global = 1.42668e-10, cumulative = 5.63624e-09
ExecutionTime = 0.258915 s  ClockTime = 1 s

Courant Number mean: 0.433034 max: 0.689658
Time = 2.85s

smoothSolver:  Solving for Ux, Initial residual = 0.00636364, Final residual = 5.54865e-06, No Iterations 4
smoothSolver:  Solving for Uy, Initial residual = 0.00914936, Final residual = 8.23068e-06, No Iterations 4
GAMG:  Solving for p, Initial residual = 0.0147869, Final residual = 0.000399993, No Iterations 2
time step continuity errors : sum local = 8.36719e-07, global = 8.78031e-08
GAMG:  Solving for p, Initial residual = 0.00232131, Final residual = 3.25414e-07, No Iterations 6
time step continuity errors : sum local = 6.82176e-10, global = 9.79146e-11, cumulative = 5.73415e-09
ExecutionTime = 0.261749 s  ClockTime = 1 s

Courant Number mean: 0.433337 max: 0.689751
Time = 2.9s

smoothSolver:  Solving for Ux, Initial residual = 0.0062832, Final residual = 5.52526e-06, No Iterations 4
smoothSolver:  Solving for Uy, Initial residual = 0.00906538, Final residual = 8.20345e-06, No Iterations 4
GAMG:  Solving for p, Initial residual = 0.0141491, Final residual = 0.00039214, No Iterations 2
time step continuity errors : sum local = 8.26344e-07, global = 1.00204e-07
GAMG:  Solving for p, Initial residual = 0.00231976, Final residual = 2.25772e-07, No Iterations 6
time step continuity errors : sum local = 4.77169e-10, global = 1.04411e-10, cumulative = 5.83856e-09
ExecutionTime = 0.264613 s  ClockTime = 1 s

Courant Number mean: 0.43364 max: 0.689835
Time = 2.95s

smoothSolver:  Solving for Ux, Initial residual = 0.00619735, Final residual = 5.48775e-06, No Iterations 4
smoothSolver:  Solving for Uy, Initial residual = 0.00896677, Final residual = 8.14598e-06, No Iterations 4
GAMG:  Solving for p, Initial residual = 0.0153456, Final residual = 0.00040195, No Iterations 2
time step continuity errors : sum local = 8.54703e-07, global = 8.84209e-08
GAMG:  Solving for p, Initial residual = 0.00249712, Final residual = 2.83905e-07, No Iterations 6
time step continuity errors : sum local = 6.05807e-10, global = 9.54554e-11, cumulative = 5.93402e-09
ExecutionTime = 0.267531 s  ClockTime = 1 s

Courant Number mean: 0.43393 max: 0.68992
Time = 3s

smoothSolver:  Solving for Ux, Initial residual = 0.00610897, Final residual = 5.4416e-06, No Iterations 4
smoothSolver:  Solving for Uy, Initial residual = 0.00887132, Final residual = 8.1072e-06, No Iterations 4
GAMG:  Solving for p, Initial residual = 0.0145974, Final residual = 0.000381649, No Iterations 2
time step continuity errors : sum local = 8.19337e-07, global = 9.27643e-08
GAMG:  Solving for p, Initial residual = 0.0023656, Final residual = 2.95775e-07, No Iterations 6
time step continuity errors : sum local = 6.37768e-10, global = 9.97636e-11, cumulative = 6.03378e-09
ExecutionTime = 0.273955 s  ClockTime = 1 s

Courant Number mean: 0.434218 max: 0.690687
Time = 3.05s

smoothSolver:  Solving for Ux, Initial residual = 0.0060293, Final residual = 5.4025e-06, No Iterations 4
smoothSolver:  Solving for Uy, Initial residual = 0.008765, Final residual = 7.99475e-06, No Iterations 4
GAMG:  Solving for p, Initial residual = 0.0157605, Final residual = 0.000403819, No Iterations 2
time step continuity errors : sum local = 8.75446e-07, global = 1.00714e-07
GAMG:  Solving for p, Initial residual = 0.00237954, Final residual = 2.40425e-07, No Iterations 6
time step continuity errors : sum local = 5.23372e-10, global = 1.04578e-10, cumulative = 6.13836e-09
ExecutionTime = 0.276863 s  ClockTime = 1 s

Courant Number mean: 0.434509 max: 0.691644
Time = 3.1s

smoothSolver:  Solving for Ux, Initial residual = 0.0059535, Final residual = 5.35136e-06, No Iterations 4
smoothSolver:  Solving for Uy, Initial residual = 0.00864028, Final residual = 7.96614e-06, No Iterations 4
GAMG:  Solving for p, Initial residual = 0.0151317, Final residual = 0.000410595, No Iterations 2
time step continuity errors : sum local = 8.96517e-07, global = 7.6521e-08
GAMG:  Solving for p, Initial residual = 0.00233963, Final residual = 6.77285e-07, No Iterations 5
time step continuity errors : sum local = 1.48028e-09, global = 2.59654e-10, cumulative = 6.39802e-09
ExecutionTime = 0.279674 s  ClockTime = 1 s

Courant Number mean: 0.434801 max: 0.692
Time = 3.15s

smoothSolver:  Solving for Ux, Initial residual = 0.00588343, Final residual = 5.32474e-06, No Iterations 4
smoothSolver:  Solving for Uy, Initial residual = 0.00858174, Final residual = 7.9941e-06, No Iterations 4
GAMG:  Solving for p, Initial residual = 0.0141844, Final residual = 0.000388652, No Iterations 2
time step continuity errors : sum local = 8.51674e-07, global = 5.55535e-08
GAMG:  Solving for p, Initial residual = 0.0022658, Final residual = 5.96893e-07, No Iterations 5
time step continuity errors : sum local = 1.31502e-09, global = 2.21951e-10, cumulative = 6.61997e-09
ExecutionTime = 0.282363 s  ClockTime = 1 s

Courant Number mean: 0.435095 max: 0.691767
Time = 3.2s

smoothSolver:  Solving for Ux, Initial residual = 0.00581312, Final residual = 5.28431e-06, No Iterations 4
smoothSolver:  Solving for Uy, Initial residual = 0.00846825, Final residual = 7.92822e-06, No Iterations 4
GAMG:  Solving for p, Initial residual = 0.0134114, Final residual = 0.000365461, No Iterations 2
time step continuity errors : sum local = 8.06725e-07, global = 5.83203e-08
GAMG:  Solving for p, Initial residual = 0.002185, Final residual = 5.90791e-07, No Iterations 5
time step continuity errors : sum local = 1.31148e-09, global = 2.01056e-10, cumulative = 6.82102e-09
ExecutionTime = 0.285113 s  ClockTime = 1 s

Courant Number mean: 0.435386 max: 0.690959
Time = 3.25s

smoothSolver:  Solving for Ux, Initial residual = 0.00573579, Final residual = 5.24167e-06, No Iterations 4
smoothSolver:  Solving for Uy, Initial residual = 0.0083743, Final residual = 7.88082e-06, No Iterations 4
GAMG:  Solving for p, Initial residual = 0.0129746, Final residual = 0.000358406, No Iterations 2
time step continuity errors : sum local = 7.96887e-07, global = 4.04413e-08
GAMG:  Solving for p, Initial residual = 0.00213852, Final residual = 4.04713e-07, No Iterations 5
time step continuity errors : sum local = 9.05297e-10, global = 1.49658e-10, cumulative = 6.97068e-09
ExecutionTime = 0.287923 s  ClockTime = 1 s

Courant Number mean: 0.43566 max: 0.691887
Time = 3.3s

smoothSolver:  Solving for Ux, Initial residual = 0.00566201, Final residual = 5.19758e-06, No Iterations 4
smoothSolver:  Solving for Uy, Initial residual = 0.00828128, Final residual = 7.82099e-06, No Iterations 4
GAMG:  Solving for p, Initial residual = 0.0127242, Final residual = 0.000357333, No Iterations 2
time step continuity errors : sum local = 8.00108e-07, global = 4.67027e-08
GAMG:  Solving for p, Initial residual = 0.00211757, Final residual = 4.89911e-07, No Iterations 5
time step continuity errors : sum local = 1.1034e-09, global = 1.33738e-10, cumulative = 7.10442e-09
ExecutionTime = 0.290637 s  ClockTime = 1 s

Courant Number mean: 0.435933 max: 0.692804
Time = 3.35s

smoothSolver:  Solving for Ux, Initial residual = 0.00558992, Final residual = 5.14796e-06, No Iterations 4
smoothSolver:  Solving for Uy, Initial residual = 0.00818862, Final residual = 7.77067e-06, No Iterations 4
GAMG:  Solving for p, Initial residual = 0.0128872, Final residual = 0.000352735, No Iterations 2
time step continuity errors : sum local = 7.95591e-07, global = 4.67787e-08
GAMG:  Solving for p, Initial residual = 0.00213008, Final residual = 3.71985e-07, No Iterations 5
time step continuity errors : sum local = 8.44055e-10, global = 1.10568e-10, cumulative = 7.21499e-09
ExecutionTime = 0.293413 s  ClockTime = 1 s

Courant Number mean: 0.436207 max: 0.693131
Time = 3.4s

smoothSolver:  Solving for Ux, Initial residual = 0.00551886, Final residual = 5.10052e-06, No Iterations 4
smoothSolver:  Solving for Uy, Initial residual = 0.00810517, Final residual = 7.74597e-06, No Iterations 4
GAMG:  Solving for p, Initial residual = 0.0124791, Final residual = 0.000332411, No Iterations 2
time step continuity errors : sum local = 7.55026e-07, global = 4.8163e-08
GAMG:  Solving for p, Initial residual = 0.00210644, Final residual = 3.69098e-07, No Iterations 5
time step continuity errors : sum local = 8.4308e-10, global = -1.27679e-11, cumulative = 7.20222e-09
ExecutionTime = 0.296145 s  ClockTime = 1 s

Courant Number mean: 0.436472 max: 0.693418
Time = 3.45s

smoothSolver:  Solving for Ux, Initial residual = 0.00545279, Final residual = 5.06141e-06, No Iterations 4
smoothSolver:  Solving for Uy, Initial residual = 0.00802527, Final residual = 7.69576e-06, No Iterations 4
GAMG:  Solving for p, Initial residual = 0.0124809, Final residual = 0.000341371, No Iterations 2
time step continuity errors : sum local = 7.79963e-07, global = 5.35199e-08
GAMG:  Solving for p, Initial residual = 0.00208192, Final residual = 3.60684e-07, No Iterations 5
time step continuity errors : sum local = 8.27957e-10, global = 9.41221e-11, cumulative = 7.29634e-09
ExecutionTime = 0.298948 s  ClockTime = 1 s

Courant Number mean: 0.436742 max: 0.693805
Time = 3.5s

smoothSolver:  Solving for Ux, Initial residual = 0.00538336, Final residual = 5.01747e-06, No Iterations 4
smoothSolver:  Solving for Uy, Initial residual = 0.00797333, Final residual = 7.69741e-06, No Iterations 4
GAMG:  Solving for p, Initial residual = 0.0126706, Final residual = 0.000346954, No Iterations 2
time step continuity errors : sum local = 7.96514e-07, global = 6.36559e-08
GAMG:  Solving for p, Initial residual = 0.00211347, Final residual = 6.05033e-07, No Iterations 5
time step continuity errors : sum local = 1.39496e-09, global = 1.02447e-10, cumulative = 7.39879e-09
ExecutionTime = 0.301667 s  ClockTime = 1 s

Courant Number mean: 0.436997 max: 0.69434
Time = 3.55s

smoothSolver:  Solving for Ux, Initial residual = 0.00531511, Final residual = 4.96664e-06, No Iterations 4
smoothSolver:  Solving for Uy, Initial residual = 0.00789414, Final residual = 7.68311e-06, No Iterations 4
GAMG:  Solving for p, Initial residual = 0.0121374, Final residual = 0.000322653, No Iterations 2
time step continuity errors : sum local = 7.44454e-07, global = 6.54064e-08
GAMG:  Solving for p, Initial residual = 0.00193114, Final residual = 5.49304e-07, No Iterations 5
time step continuity errors : sum local = 1.27214e-09, global = 5.62624e-11, cumulative = 7.45505e-09
ExecutionTime = 0.304432 s  ClockTime = 1 s

Courant Number mean: 0.437242 max: 0.695796
Time = 3.6s

smoothSolver:  Solving for Ux, Initial residual = 0.00525157, Final residual = 4.92143e-06, No Iterations 4
smoothSolver:  Solving for Uy, Initial residual = 0.00781728, Final residual = 7.63421e-06, No Iterations 4
GAMG:  Solving for p, Initial residual = 0.0127091, Final residual = 0.000334958, No Iterations 2
time step continuity errors : sum local = 7.76821e-07, global = 6.88949e-08
GAMG:  Solving for p, Initial residual = 0.00197919, Final residual = 4.13981e-07, No Iterations 5
time step continuity errors : sum local = 9.65167e-10, global = 6.29687e-11, cumulative = 7.51802e-09
ExecutionTime = 0.307197 s  ClockTime = 1 s

Courant Number mean: 0.437495 max: 0.696884
Time = 3.65s

smoothSolver:  Solving for Ux, Initial residual = 0.00518845, Final residual = 4.86867e-06, No Iterations 4
smoothSolver:  Solving for Uy, Initial residual = 0.00770569, Final residual = 7.60253e-06, No Iterations 4
GAMG:  Solving for p, Initial residual = 0.0124878, Final residual = 0.000331372, No Iterations 2
time step continuity errors : sum local = 7.72874e-07, global = 1.0498e-07
GAMG:  Solving for p, Initial residual = 0.00192296, Final residual = 9.07158e-07, No Iterations 5
time step continuity errors : sum local = 2.11691e-09, global = 1.11203e-10, cumulative = 7.62922e-09
ExecutionTime = 0.309885 s  ClockTime = 1 s

Courant Number mean: 0.437749 max: 0.697618
Time = 3.7s

smoothSolver:  Solving for Ux, Initial residual = 0.00513012, Final residual = 4.83324e-06, No Iterations 4
smoothSolver:  Solving for Uy, Initial residual = 0.00764268, Final residual = 7.59918e-06, No Iterations 4
GAMG:  Solving for p, Initial residual = 0.0113646, Final residual = 0.000314321, No Iterations 2
time step continuity errors : sum local = 7.35659e-07, global = 8.15797e-08
GAMG:  Solving for p, Initial residual = 0.00186314, Final residual = 7.06711e-07, No Iterations 5
time step continuity errors : sum local = 1.65791e-09, global = 1.31744e-10, cumulative = 7.76096e-09
ExecutionTime = 0.312622 s  ClockTime = 1 s

Courant Number mean: 0.438004 max: 0.698005
Time = 3.75s

smoothSolver:  Solving for Ux, Initial residual = 0.00506637, Final residual = 4.78778e-06, No Iterations 4
smoothSolver:  Solving for Uy, Initial residual = 0.00758471, Final residual = 7.5566e-06, No Iterations 4
GAMG:  Solving for p, Initial residual = 0.0114562, Final residual = 0.000296659, No Iterations 2
time step continuity errors : sum local = 6.97249e-07, global = 9.62655e-08
GAMG:  Solving for p, Initial residual = 0.00184786, Final residual = 7.76048e-07, No Iterations 5
time step continuity errors : sum local = 1.82837e-09, global = 1.16391e-10, cumulative = 7.87736e-09
ExecutionTime = 0.315368 s  ClockTime = 1 s

Courant Number mean: 0.438259 max: 0.698076
Time = 3.8s

smoothSolver:  Solving for Ux, Initial residual = 0.00500858, Final residual = 4.74371e-06, No Iterations 4
smoothSolver:  Solving for Uy, Initial residual = 0.0075104, Final residual = 7.53494e-06, No Iterations 4
GAMG:  Solving for p, Initial residual = 0.0107147, Final residual = 0.000280635, No Iterations 2
time step continuity errors : sum local = 6.63018e-07, global = 1.24365e-07
GAMG:  Solving for p, Initial residual = 0.00176818, Final residual = 6.6653e-07, No Iterations 5
time step continuity errors : sum local = 1.57694e-09, global = 1.054e-10, cumulative = 7.98275e-09
ExecutionTime = 0.31813 s  ClockTime = 1 s

Courant Number mean: 0.438506 max: 0.698099
Time = 3.85s

smoothSolver:  Solving for Ux, Initial residual = 0.00495217, Final residual = 4.69991e-06, No Iterations 4
smoothSolver:  Solving for Uy, Initial residual = 0.00744037, Final residual = 7.49162e-06, No Iterations 4
GAMG:  Solving for p, Initial residual = 0.0106488, Final residual = 0.000274354, No Iterations 2
time step continuity errors : sum local = 6.51843e-07, global = 1.21844e-07
GAMG:  Solving for p, Initial residual = 0.00175446, Final residual = 6.45415e-07, No Iterations 5
time step continuity errors : sum local = 1.53557e-09, global = 9.98774e-11, cumulative = 8.08263e-09
ExecutionTime = 0.320875 s  ClockTime = 1 s

Courant Number mean: 0.438742 max: 0.69921
Time = 3.9s

smoothSolver:  Solving for Ux, Initial residual = 0.0048953, Final residual = 4.65528e-06, No Iterations 4
smoothSolver:  Solving for Uy, Initial residual = 0.00736284, Final residual = 7.45193e-06, No Iterations 4
GAMG:  Solving for p, Initial residual = 0.0111588, Final residual = 0.000297963, No Iterations 2
time step continuity errors : sum local = 7.11301e-07, global = 1.26526e-07
GAMG:  Solving for p, Initial residual = 0.00178329, Final residual = 5.64242e-07, No Iterations 5
time step continuity errors : sum local = 1.34792e-09, global = 9.86476e-11, cumulative = 8.18128e-09
ExecutionTime = 0.323602 s  ClockTime = 1 s

Courant Number mean: 0.438979 max: 0.699981
Time = 3.95s

smoothSolver:  Solving for Ux, Initial residual = 0.00483643, Final residual = 4.60593e-06, No Iterations 4
smoothSolver:  Solving for Uy, Initial residual = 0.00728644, Final residual = 7.44398e-06, No Iterations 4
GAMG:  Solving for p, Initial residual = 0.0110004, Final residual = 0.000292432, No Iterations 2
time step continuity errors : sum local = 7.01386e-07, global = 1.09003e-07
GAMG:  Solving for p, Initial residual = 0.00176047, Final residual = 8.19542e-07, No Iterations 5
time step continuity errors : sum local = 1.96656e-09, global = 9.58702e-11, cumulative = 8.27715e-09
ExecutionTime = 0.326292 s  ClockTime = 1 s

Courant Number mean: 0.439204 max: 0.70043
Time = 4s

smoothSolver:  Solving for Ux, Initial residual = 0.00478178, Final residual = 4.57261e-06, No Iterations 4
smoothSolver:  Solving for Uy, Initial residual = 0.00725894, Final residual = 7.46221e-06, No Iterations 4
GAMG:  Solving for p, Initial residual = 0.00996007, Final residual = 0.000265835, No Iterations 2
time step continuity errors : sum local = 6.39697e-07, global = 1.24281e-07
GAMG:  Solving for p, Initial residual = 0.00166582, Final residual = 5.4323e-07, No Iterations 5
time step continuity errors : sum local = 1.30843e-09, global = 9.82235e-11, cumulative = 8.37537e-09
ExecutionTime = 0.332708 s  ClockTime = 1 s

Courant Number mean: 0.439432 max: 0.700582
Time = 4.05s

smoothSolver:  Solving for Ux, Initial residual = 0.0047281, Final residual = 4.53253e-06, No Iterations 4
smoothSolver:  Solving for Uy, Initial residual = 0.00719856, Final residual = 7.41878e-06, No Iterations 4
GAMG:  Solving for p, Initial residual = 0.0102094, Final residual = 0.000257292, No Iterations 2
time step continuity errors : sum local = 6.21523e-07, global = 1.23387e-07
GAMG:  Solving for p, Initial residual = 0.00164833, Final residual = 5.39581e-07, No Iterations 5
time step continuity errors : sum local = 1.30359e-09, global = 9.66568e-11, cumulative = 8.47203e-09
ExecutionTime = 0.33547 s  ClockTime = 1 s

Courant Number mean: 0.439655 max: 0.700452
Time = 4.1s

smoothSolver:  Solving for Ux, Initial residual = 0.0046764, Final residual = 4.49364e-06, No Iterations 4
smoothSolver:  Solving for Uy, Initial residual = 0.00714126, Final residual = 7.40717e-06, No Iterations 4
GAMG:  Solving for p, Initial residual = 0.00982956, Final residual = 0.000259497, No Iterations 2
time step continuity errors : sum local = 6.29114e-07, global = 1.23009e-07
GAMG:  Solving for p, Initial residual = 0.00158029, Final residual = 5.44127e-07, No Iterations 5
time step continuity errors : sum local = 1.31986e-09, global = 9.48095e-11, cumulative = 8.56684e-09
ExecutionTime = 0.338222 s  ClockTime = 1 s

Courant Number mean: 0.439877 max: 0.700064
Time = 4.15s

smoothSolver:  Solving for Ux, Initial residual = 0.00462953, Final residual = 4.45554e-06, No Iterations 4
smoothSolver:  Solving for Uy, Initial residual = 0.00706278, Final residual = 7.37452e-06, No Iterations 4
GAMG:  Solving for p, Initial residual = 0.00989329, Final residual = 0.000255762, No Iterations 2
time step continuity errors : sum local = 6.22545e-07, global = 1.24023e-07
GAMG:  Solving for p, Initial residual = 0.00155795, Final residual = 5.30152e-07, No Iterations 5
time step continuity errors : sum local = 1.29112e-09, global = 8.56283e-11, cumulative = 8.65247e-09
ExecutionTime = 0.341015 s  ClockTime = 1 s

Courant Number mean: 0.440102 max: 0.700667
Time = 4.2s

smoothSolver:  Solving for Ux, Initial residual = 0.00457959, Final residual = 4.41719e-06, No Iterations 4
smoothSolver:  Solving for Uy, Initial residual = 0.00698386, Final residual = 7.34182e-06, No Iterations 4
GAMG:  Solving for p, Initial residual = 0.00952255, Final residual = 0.000236104, No Iterations 2
time step continuity errors : sum local = 5.7702e-07, global = 1.27081e-07
GAMG:  Solving for p, Initial residual = 0.00152719, Final residual = 4.86964e-07, No Iterations 5
time step continuity errors : sum local = 1.19086e-09, global = 8.50255e-11, cumulative = 8.73749e-09
ExecutionTime = 0.343782 s  ClockTime = 1 s

Courant Number mean: 0.44033 max: 0.701212
Time = 4.25s

smoothSolver:  Solving for Ux, Initial residual = 0.00453127, Final residual = 4.37884e-06, No Iterations 4
smoothSolver:  Solving for Uy, Initial residual = 0.0069136, Final residual = 7.3076e-06, No Iterations 4
GAMG:  Solving for p, Initial residual = 0.00917184, Final residual = 0.000234283, No Iterations 2
time step continuity errors : sum local = 5.74849e-07, global = 1.20079e-07
GAMG:  Solving for p, Initial residual = 0.00147836, Final residual = 5.82488e-07, No Iterations 5
time step continuity errors : sum local = 1.4297e-09, global = 8.36989e-11, cumulative = 8.82119e-09
ExecutionTime = 0.346466 s  ClockTime = 1 s

Courant Number mean: 0.440551 max: 0.701495
Time = 4.3s

smoothSolver:  Solving for Ux, Initial residual = 0.00448599, Final residual = 4.34938e-06, No Iterations 4
smoothSolver:  Solving for Uy, Initial residual = 0.00685839, Final residual = 7.28518e-06, No Iterations 4
GAMG:  Solving for p, Initial residual = 0.00895857, Final residual = 0.00022755, No Iterations 2
time step continuity errors : sum local = 5.60035e-07, global = 1.22458e-07
GAMG:  Solving for p, Initial residual = 0.0014285, Final residual = 5.02167e-07, No Iterations 5
time step continuity errors : sum local = 1.23632e-09, global = 7.38222e-11, cumulative = 8.89501e-09
ExecutionTime = 0.349272 s  ClockTime = 1 s

Courant Number mean: 0.440777 max: 0.701521
Time = 4.35s

smoothSolver:  Solving for Ux, Initial residual = 0.00444041, Final residual = 4.31642e-06, No Iterations 4
smoothSolver:  Solving for Uy, Initial residual = 0.00681268, Final residual = 7.24989e-06, No Iterations 4
GAMG:  Solving for p, Initial residual = 0.00902623, Final residual = 0.000215754, No Iterations 2
time step continuity errors : sum local = 5.32815e-07, global = 1.1009e-07
GAMG:  Solving for p, Initial residual = 0.00144065, Final residual = 5.2538e-07, No Iterations 5
time step continuity errors : sum local = 1.29914e-09, global = 6.66342e-11, cumulative = 8.96165e-09
ExecutionTime = 0.352013 s  ClockTime = 1 s

Courant Number mean: 0.440994 max: 0.701318
Time = 4.4s

smoothSolver:  Solving for Ux, Initial residual = 0.00439593, Final residual = 4.28106e-06, No Iterations 4
smoothSolver:  Solving for Uy, Initial residual = 0.00674238, Final residual = 7.19645e-06, No Iterations 4
GAMG:  Solving for p, Initial residual = 0.00869459, Final residual = 0.000225318, No Iterations 2
time step continuity errors : sum local = 5.58392e-07, global = 1.0859e-07
GAMG:  Solving for p, Initial residual = 0.00142354, Final residual = 5.46465e-07, No Iterations 5
time step continuity errors : sum local = 1.35552e-09, global = 6.7678e-11, cumulative = 9.02933e-09
ExecutionTime = 0.354761 s  ClockTime = 1 s

Courant Number mean: 0.441202 max: 0.700895
Time = 4.45s

smoothSolver:  Solving for Ux, Initial residual = 0.00435112, Final residual = 4.24711e-06, No Iterations 4
smoothSolver:  Solving for Uy, Initial residual = 0.00668042, Final residual = 7.18791e-06, No Iterations 4
GAMG:  Solving for p, Initial residual = 0.00854953, Final residual = 0.000224901, No Iterations 2
time step continuity errors : sum local = 5.59337e-07, global = 1.09847e-07
GAMG:  Solving for p, Initial residual = 0.00141358, Final residual = 5.16396e-07, No Iterations 5
time step continuity errors : sum local = 1.28597e-09, global = 7.18183e-11, cumulative = 9.10115e-09
ExecutionTime = 0.357546 s  ClockTime = 1 s

Courant Number mean: 0.441405 max: 0.700682
Time = 4.5s

smoothSolver:  Solving for Ux, Initial residual = 0.0043066, Final residual = 4.21282e-06, No Iterations 4
smoothSolver:  Solving for Uy, Initial residual = 0.00662572, Final residual = 7.17257e-06, No Iterations 4
GAMG:  Solving for p, Initial residual = 0.00821586, Final residual = 0.000210646, No Iterations 2
time step continuity errors : sum local = 5.26087e-07, global = 1.11768e-07
GAMG:  Solving for p, Initial residual = 0.00135874, Final residual = 4.80983e-07, No Iterations 5
time step continuity errors : sum local = 1.20315e-09, global = 7.15066e-11, cumulative = 9.17265e-09
ExecutionTime = 0.360311 s  ClockTime = 1 s

Courant Number mean: 0.441607 max: 0.701114
Time = 4.55s

smoothSolver:  Solving for Ux, Initial residual = 0.00426447, Final residual = 4.18119e-06, No Iterations 4
smoothSolver:  Solving for Uy, Initial residual = 0.00656909, Final residual = 7.12243e-06, No Iterations 4
GAMG:  Solving for p, Initial residual = 0.00808386, Final residual = 0.000199981, No Iterations 2
time step continuity errors : sum local = 5.01354e-07, global = 1.26797e-07
GAMG:  Solving for p, Initial residual = 0.0013452, Final residual = 5.41442e-07, No Iterations 5
time step continuity errors : sum local = 1.35795e-09, global = 7.84403e-11, cumulative = 9.25109e-09
ExecutionTime = 0.363033 s  ClockTime = 1 s

Courant Number mean: 0.441803 max: 0.701315
Time = 4.6s

smoothSolver:  Solving for Ux, Initial residual = 0.00422444, Final residual = 4.15348e-06, No Iterations 4
smoothSolver:  Solving for Uy, Initial residual = 0.00652484, Final residual = 7.11536e-06, No Iterations 4
GAMG:  Solving for p, Initial residual = 0.00799517, Final residual = 0.000198542, No Iterations 2
time step continuity errors : sum local = 4.99135e-07, global = 1.28525e-07
GAMG:  Solving for p, Initial residual = 0.00124908, Final residual = 5.55817e-07, No Iterations 5
time step continuity errors : sum local = 1.39773e-09, global = 7.25489e-11, cumulative = 9.32364e-09
ExecutionTime = 0.365751 s  ClockTime = 1 s

Courant Number mean: 0.442008 max: 0.701301
Time = 4.65s

smoothSolver:  Solving for Ux, Initial residual = 0.0041858, Final residual = 4.12549e-06, No Iterations 4
smoothSolver:  Solving for Uy, Initial residual = 0.00647564, Final residual = 7.07785e-06, No Iterations 4
GAMG:  Solving for p, Initial residual = 0.00798543, Final residual = 0.000200565, No Iterations 2
time step continuity errors : sum local = 5.05641e-07, global = 1.17479e-07
GAMG:  Solving for p, Initial residual = 0.00124329, Final residual = 5.08846e-07, No Iterations 5
time step continuity errors : sum local = 1.28409e-09, global = 7.37029e-11, cumulative = 9.39734e-09
ExecutionTime = 0.368589 s  ClockTime = 1 s

Courant Number mean: 0.44221 max: 0.701092
Time = 4.7s

smoothSolver:  Solving for Ux, Initial residual = 0.00414789, Final residual = 4.09587e-06, No Iterations 4
smoothSolver:  Solving for Uy, Initial residual = 0.0063973, Final residual = 7.038e-06, No Iterations 4
GAMG:  Solving for p, Initial residual = 0.00806199, Final residual = 0.000194143, No Iterations 2
time step continuity errors : sum local = 4.91078e-07, global = 1.33124e-07
GAMG:  Solving for p, Initial residual = 0.00123574, Final residual = 6.07307e-07, No Iterations 5
time step continuity errors : sum local = 1.53699e-09, global = 7.1704e-11, cumulative = 9.46905e-09
ExecutionTime = 0.371332 s  ClockTime = 1 s

Courant Number mean: 0.442411 max: 0.700698
Time = 4.75s

smoothSolver:  Solving for Ux, Initial residual = 0.00410901, Final residual = 4.06642e-06, No Iterations 4
smoothSolver:  Solving for Uy, Initial residual = 0.00633738, Final residual = 7.00024e-06, No Iterations 4
GAMG:  Solving for p, Initial residual = 0.00762833, Final residual = 0.000181253, No Iterations 2
time step continuity errors : sum local = 4.59981e-07, global = 1.20853e-07
GAMG:  Solving for p, Initial residual = 0.00120648, Final residual = 4.76994e-07, No Iterations 5
time step continuity errors : sum local = 1.21185e-09, global = 7.10695e-11, cumulative = 9.54012e-09
ExecutionTime = 0.374028 s  ClockTime = 1 s

Courant Number mean: 0.442608 max: 0.700148
Time = 4.8s

smoothSolver:  Solving for Ux, Initial residual = 0.004073, Final residual = 4.03928e-06, No Iterations 4
smoothSolver:  Solving for Uy, Initial residual = 0.00627546, Final residual = 6.95897e-06, No Iterations 4
GAMG:  Solving for p, Initial residual = 0.00744851, Final residual = 0.00017897, No Iterations 2
time step continuity errors : sum local = 4.55762e-07, global = 1.26827e-07
GAMG:  Solving for p, Initial residual = 0.00116075, Final residual = 4.89205e-07, No Iterations 5
time step continuity errors : sum local = 1.24761e-09, global = 7.44309e-11, cumulative = 9.61455e-09
ExecutionTime = 0.37676 s  ClockTime = 1 s

Courant Number mean: 0.442807 max: 0.700043
Time = 4.85s

smoothSolver:  Solving for Ux, Initial residual = 0.00403538, Final residual = 4.01053e-06, No Iterations 4
smoothSolver:  Solving for Uy, Initial residual = 0.00621549, Final residual = 6.91866e-06, No Iterations 4
GAMG:  Solving for p, Initial residual = 0.00735424, Final residual = 0.00018649, No Iterations 2
time step continuity errors : sum local = 4.76732e-07, global = 1.26167e-07
GAMG:  Solving for p, Initial residual = 0.0011253, Final residual = 5.33959e-07, No Iterations 5
time step continuity errors : sum local = 1.36599e-09, global = 8.10007e-11, cumulative = 9.69555e-09
ExecutionTime = 0.379603 s  ClockTime = 1 s

Courant Number mean: 0.443002 max: 0.700257
Time = 4.9s

smoothSolver:  Solving for Ux, Initial residual = 0.00399829, Final residual = 3.98801e-06, No Iterations 4
smoothSolver:  Solving for Uy, Initial residual = 0.00617841, Final residual = 6.88311e-06, No Iterations 4
GAMG:  Solving for p, Initial residual = 0.00698241, Final residual = 0.000169615, No Iterations 2
time step continuity errors : sum local = 4.34892e-07, global = 1.35461e-07
GAMG:  Solving for p, Initial residual = 0.00113836, Final residual = 5.20602e-07, No Iterations 5
time step continuity errors : sum local = 1.33594e-09, global = 7.10079e-11, cumulative = 9.76656e-09
ExecutionTime = 0.38232 s  ClockTime = 1 s

Courant Number mean: 0.4432 max: 0.70029
Time = 4.95s

smoothSolver:  Solving for Ux, Initial residual = 0.00396267, Final residual = 3.96279e-06, No Iterations 4
smoothSolver:  Solving for Uy, Initial residual = 0.00612433, Final residual = 6.83234e-06, No Iterations 4
GAMG:  Solving for p, Initial residual = 0.00689605, Final residual = 0.00017464, No Iterations 2
time step continuity errors : sum local = 4.49223e-07, global = 1.36661e-07
GAMG:  Solving for p, Initial residual = 0.0011081, Final residual = 5.47598e-07, No Iterations 5
time step continuity errors : sum local = 1.4097e-09, global = 7.97025e-11, cumulative = 9.84626e-09
ExecutionTime = 0.385067 s  ClockTime = 1 s

Courant Number mean: 0.443392 max: 0.700152
Time = 5s

smoothSolver:  Solving for Ux, Initial residual = 0.00392749, Final residual = 3.93507e-06, No Iterations 4
smoothSolver:  Solving for Uy, Initial residual = 0.0060694, Final residual = 6.80657e-06, No Iterations 4
GAMG:  Solving for p, Initial residual = 0.00687738, Final residual = 0.000177708, No Iterations 2
time step continuity errors : sum local = 4.58623e-07, global = 1.36369e-07
GAMG:  Solving for p, Initial residual = 0.00111923, Final residual = 5.40526e-07, No Iterations 5
time step continuity errors : sum local = 1.39622e-09, global = 8.59903e-11, cumulative = 9.93225e-09
ExecutionTime = 0.391458 s  ClockTime = 1 s

Courant Number mean: 0.443575 max: 0.699853
Time = 5.05s

smoothSolver:  Solving for Ux, Initial residual = 0.00389334, Final residual = 3.90772e-06, No Iterations 4
smoothSolver:  Solving for Uy, Initial residual = 0.00602553, Final residual = 6.78471e-06, No Iterations 4
GAMG:  Solving for p, Initial residual = 0.00666024, Final residual = 0.000169915, No Iterations 2
time step continuity errors : sum local = 4.40053e-07, global = 1.37958e-07
GAMG:  Solving for p, Initial residual = 0.00108812, Final residual = 5.21119e-07, No Iterations 5
time step continuity errors : sum local = 1.35117e-09, global = 8.40536e-11, cumulative = 1.00163e-08
ExecutionTime = 0.3942 s  ClockTime = 1 s

Courant Number mean: 0.44375 max: 0.69941
Time = 5.1s

smoothSolver:  Solving for Ux, Initial residual = 0.00385929, Final residual = 3.88341e-06, No Iterations 4
smoothSolver:  Solving for Uy, Initial residual = 0.0059788, Final residual = 6.73682e-06, No Iterations 4
GAMG:  Solving for p, Initial residual = 0.00696346, Final residual = 0.000172128, No Iterations 2
time step continuity errors : sum local = 4.47365e-07, global = 1.45016e-07
GAMG:  Solving for p, Initial residual = 0.00109847, Final residual = 6.05908e-07, No Iterations 5
time step continuity errors : sum local = 1.57633e-09, global = 9.80052e-11, cumulative = 1.01143e-08
ExecutionTime = 0.396959 s  ClockTime = 1 s

Courant Number mean: 0.443929 max: 0.69883
Time = 5.15s

smoothSolver:  Solving for Ux, Initial residual = 0.00382443, Final residual = 3.85501e-06, No Iterations 4
smoothSolver:  Solving for Uy, Initial residual = 0.00592689, Final residual = 6.71016e-06, No Iterations 4
GAMG:  Solving for p, Initial residual = 0.00676013, Final residual = 0.000156789, No Iterations 2
time step continuity errors : sum local = 4.09047e-07, global = 1.25471e-07
GAMG:  Solving for p, Initial residual = 0.00100773, Final residual = 4.36992e-07, No Iterations 5
time step continuity errors : sum local = 1.14111e-09, global = 7.46136e-11, cumulative = 1.01889e-08
ExecutionTime = 0.399783 s  ClockTime = 1 s

Courant Number mean: 0.444108 max: 0.698604
Time = 5.2s

smoothSolver:  Solving for Ux, Initial residual = 0.00379294, Final residual = 3.83898e-06, No Iterations 4
smoothSolver:  Solving for Uy, Initial residual = 0.00589296, Final residual = 6.68671e-06, No Iterations 4
GAMG:  Solving for p, Initial residual = 0.00623517, Final residual = 0.000155117, No Iterations 2
time step continuity errors : sum local = 4.05613e-07, global = 1.42987e-07
GAMG:  Solving for p, Initial residual = 0.000991706, Final residual = 4.71921e-07, No Iterations 5
time step continuity errors : sum local = 1.23533e-09, global = 8.51223e-11, cumulative = 1.0274e-08
ExecutionTime = 0.402491 s  ClockTime = 1 s

Courant Number mean: 0.444294 max: 0.698708
Time = 5.25s

smoothSolver:  Solving for Ux, Initial residual = 0.00376034, Final residual = 3.81416e-06, No Iterations 4
smoothSolver:  Solving for Uy, Initial residual = 0.00584112, Final residual = 6.64746e-06, No Iterations 4
GAMG:  Solving for p, Initial residual = 0.00634793, Final residual = 0.000151904, No Iterations 2
time step continuity errors : sum local = 3.98549e-07, global = 1.41699e-07
GAMG:  Solving for p, Initial residual = 0.000998616, Final residual = 4.44702e-07, No Iterations 5
time step continuity errors : sum local = 1.168e-09, global = 8.27465e-11, cumulative = 1.03568e-08
ExecutionTime = 0.405239 s  ClockTime = 1 s

Courant Number mean: 0.444479 max: 0.698658
Time = 5.3s

smoothSolver:  Solving for Ux, Initial residual = 0.00373025, Final residual = 3.78963e-06, No Iterations 4
smoothSolver:  Solving for Uy, Initial residual = 0.00578794, Final residual = 6.60712e-06, No Iterations 4
GAMG:  Solving for p, Initial residual = 0.00628003, Final residual = 0.000149341, No Iterations 2
time step continuity errors : sum local = 3.93124e-07, global = 1.40502e-07
GAMG:  Solving for p, Initial residual = 0.000985529, Final residual = 3.85641e-07, No Iterations 5
time step continuity errors : sum local = 1.01621e-09, global = 7.74623e-11, cumulative = 1.04343e-08
ExecutionTime = 0.408013 s  ClockTime = 1 s

Courant Number mean: 0.444663 max: 0.69847
Time = 5.35s

smoothSolver:  Solving for Ux, Initial residual = 0.00370031, Final residual = 3.76741e-06, No Iterations 4
smoothSolver:  Solving for Uy, Initial residual = 0.00573745, Final residual = 6.56944e-06, No Iterations 4
GAMG:  Solving for p, Initial residual = 0.00638351, Final residual = 0.000145925, No Iterations 2
time step continuity errors : sum local = 3.85354e-07, global = 1.40776e-07
GAMG:  Solving for p, Initial residual = 0.000971829, Final residual = 3.44821e-07, No Iterations 5
time step continuity errors : sum local = 9.11649e-10, global = 6.28029e-11, cumulative = 1.04971e-08
ExecutionTime = 0.410738 s  ClockTime = 1 s

Courant Number mean: 0.444839 max: 0.698153
Time = 5.4s

smoothSolver:  Solving for Ux, Initial residual = 0.00366866, Final residual = 3.74698e-06, No Iterations 4
smoothSolver:  Solving for Uy, Initial residual = 0.00569184, Final residual = 6.53162e-06, No Iterations 4
GAMG:  Solving for p, Initial residual = 0.00568837, Final residual = 0.000143028, No Iterations 2
time step continuity errors : sum local = 3.78976e-07, global = 1.44414e-07
GAMG:  Solving for p, Initial residual = 0.000924184, Final residual = 3.64413e-07, No Iterations 5
time step continuity errors : sum local = 9.66847e-10, global = 6.80791e-11, cumulative = 1.05651e-08
ExecutionTime = 0.413432 s  ClockTime = 1 s

Courant Number mean: 0.445014 max: 0.697713
Time = 5.45s

smoothSolver:  Solving for Ux, Initial residual = 0.00363755, Final residual = 3.72456e-06, No Iterations 4
smoothSolver:  Solving for Uy, Initial residual = 0.00564527, Final residual = 6.49445e-06, No Iterations 4
GAMG:  Solving for p, Initial residual = 0.00559641, Final residual = 0.000142743, No Iterations 2
time step continuity errors : sum local = 3.79607e-07, global = 1.38048e-07
GAMG:  Solving for p, Initial residual = 0.00090823, Final residual = 9.49181e-07, No Iterations 4
time step continuity errors : sum local = 2.52762e-09, global = 3.36264e-10, cumulative = 1.09014e-08
ExecutionTime = 0.416057 s  ClockTime = 1 s

Courant Number mean: 0.445193 max: 0.697158
Time = 5.5s

smoothSolver:  Solving for Ux, Initial residual = 0.00360824, Final residual = 3.70497e-06, No Iterations 4
smoothSolver:  Solving for Uy, Initial residual = 0.00560364, Final residual = 6.45973e-06, No Iterations 4
GAMG:  Solving for p, Initial residual = 0.00572427, Final residual = 0.000140672, No Iterations 2
time step continuity errors : sum local = 3.75352e-07, global = 1.41324e-07
GAMG:  Solving for p, Initial residual = 0.000905075, Final residual = 9.80171e-07, No Iterations 4
time step continuity errors : sum local = 2.61893e-09, global = 4.04828e-10, cumulative = 1.13062e-08
ExecutionTime = 0.418648 s  ClockTime = 1 s

Courant Number mean: 0.445377 max: 0.696733
Time = 5.55s

smoothSolver:  Solving for Ux, Initial residual = 0.00357888, Final residual = 3.68427e-06, No Iterations 4
smoothSolver:  Solving for Uy, Initial residual = 0.00556574, Final residual = 6.41911e-06, No Iterations 4
GAMG:  Solving for p, Initial residual = 0.00554899, Final residual = 0.000139213, No Iterations 2
time step continuity errors : sum local = 3.72697e-07, global = 1.43009e-07
GAMG:  Solving for p, Initial residual = 0.000898122, Final residual = 9.65646e-07, No Iterations 4
time step continuity errors : sum local = 2.58859e-09, global = 3.99439e-10, cumulative = 1.17057e-08
ExecutionTime = 0.421289 s  ClockTime = 1 s

Courant Number mean: 0.445555 max: 0.696793
Time = 5.6s

smoothSolver:  Solving for Ux, Initial residual = 0.00355008, Final residual = 3.66161e-06, No Iterations 4
smoothSolver:  Solving for Uy, Initial residual = 0.0055294, Final residual = 6.39738e-06, No Iterations 4
GAMG:  Solving for p, Initial residual = 0.00562912, Final residual = 0.000142147, No Iterations 2
time step continuity errors : sum local = 3.81813e-07, global = 1.35701e-07
GAMG:  Solving for p, Initial residual = 0.000902538, Final residual = 9.16252e-07, No Iterations 4
time step continuity errors : sum local = 2.46488e-09, global = 2.73338e-10, cumulative = 1.1979e-08
ExecutionTime = 0.423909 s  ClockTime = 1 s

Courant Number mean: 0.445724 max: 0.69672
Time = 5.65s

smoothSolver:  Solving for Ux, Initial residual = 0.00352177, Final residual = 3.63959e-06, No Iterations 4
smoothSolver:  Solving for Uy, Initial residual = 0.00549495, Final residual = 6.37245e-06, No Iterations 4
GAMG:  Solving for p, Initial residual = 0.00519288, Final residual = 0.000130723, No Iterations 2
time step continuity errors : sum local = 3.52302e-07, global = 1.3496e-07
GAMG:  Solving for p, Initial residual = 0.000856576, Final residual = 7.72041e-07, No Iterations 4
time step continuity errors : sum local = 2.08412e-09, global = 2.75593e-10, cumulative = 1.22546e-08
ExecutionTime = 0.426498 s  ClockTime = 1 s

Courant Number mean: 0.445888 max: 0.696523
Time = 5.7s

smoothSolver:  Solving for Ux, Initial residual = 0.00349345, Final residual = 3.61989e-06, No Iterations 4
[...]

Courant Number mean: 0.473404 max: 0.767675
Time = 98.6s

smoothSolver:  Solving for Ux, Initial residual = 0.0114888, Final residual = 3.09647e-06, No Iterations 5
smoothSolver:  Solving for Uy, Initial residual = 0.0244679, Final residual = 4.36316e-06, No Iterations 5
GAMG:  Solving for p, Initial residual = 0.0320284, Final residual = 0.00152578, No Iterations 2
time step continuity errors : sum local = 4.49473e-06, global = 9.09881e-07
GAMG:  Solving for p, Initial residual = 0.00488672, Final residual = 3.34236e-07, No Iterations 6
time step continuity errors : sum local = 9.85874e-10, global = 3.02659e-10, cumulative = 7.09717e-09
ExecutionTime = 5.68506 s  ClockTime = 6 s

Courant Number mean: 0.473428 max: 0.769346
Time = 98.65s

smoothSolver:  Solving for Ux, Initial residual = 0.011483, Final residual = 3.14243e-06, No Iterations 5
smoothSolver:  Solving for Uy, Initial residual = 0.0243559, Final residual = 4.45971e-06, No Iterations 5
GAMG:  Solving for p, Initial residual = 0.0327164, Final residual = 0.00149341, No Iterations 2
time step continuity errors : sum local = 4.43313e-06, global = 9.27284e-07
GAMG:  Solving for p, Initial residual = 0.00487246, Final residual = 4.02724e-07, No Iterations 6
time step continuity errors : sum local = 1.19946e-09, global = 3.53532e-10, cumulative = 7.4507e-09
ExecutionTime = 5.68806 s  ClockTime = 6 s

Courant Number mean: 0.473462 max: 0.770042
Time = 98.7s

smoothSolver:  Solving for Ux, Initial residual = 0.0114624, Final residual = 3.18723e-06, No Iterations 5
smoothSolver:  Solving for Uy, Initial residual = 0.0243071, Final residual = 4.55288e-06, No Iterations 5
GAMG:  Solving for p, Initial residual = 0.033797, Final residual = 0.00155094, No Iterations 2
time step continuity errors : sum local = 4.66399e-06, global = 9.5935e-07
GAMG:  Solving for p, Initial residual = 0.00480425, Final residual = 4.34813e-07, No Iterations 6
time step continuity errors : sum local = 1.31489e-09, global = 3.77811e-10, cumulative = 7.82851e-09
ExecutionTime = 5.69095 s  ClockTime = 6 s

Courant Number mean: 0.473462 max: 0.769056
Time = 98.75s

smoothSolver:  Solving for Ux, Initial residual = 0.0114412, Final residual = 3.23203e-06, No Iterations 5
smoothSolver:  Solving for Uy, Initial residual = 0.0242668, Final residual = 4.64396e-06, No Iterations 5
GAMG:  Solving for p, Initial residual = 0.0331155, Final residual = 0.00154899, No Iterations 2
time step continuity errors : sum local = 4.73289e-06, global = 9.52551e-07
GAMG:  Solving for p, Initial residual = 0.00471449, Final residual = 3.38457e-07, No Iterations 6
time step continuity errors : sum local = 1.03859e-09, global = 3.33191e-10, cumulative = 8.1617e-09
ExecutionTime = 5.69387 s  ClockTime = 6 s

Courant Number mean: 0.473415 max: 0.766752
Time = 98.8s

smoothSolver:  Solving for Ux, Initial residual = 0.0114066, Final residual = 3.27064e-06, No Iterations 5
smoothSolver:  Solving for Uy, Initial residual = 0.0242633, Final residual = 4.7415e-06, No Iterations 5
GAMG:  Solving for p, Initial residual = 0.0316793, Final residual = 0.00147435, No Iterations 2
time step continuity errors : sum local = 4.57155e-06, global = 9.68484e-07
GAMG:  Solving for p, Initial residual = 0.00460649, Final residual = 2.4182e-07, No Iterations 6
time step continuity errors : sum local = 7.53079e-10, global = 2.87063e-10, cumulative = 8.44877e-09
ExecutionTime = 5.69683 s  ClockTime = 6 s

Courant Number mean: 0.47337 max: 0.768441
Time = 98.85s

smoothSolver:  Solving for Ux, Initial residual = 0.0113683, Final residual = 3.30949e-06, No Iterations 5
smoothSolver:  Solving for Uy, Initial residual = 0.0243159, Final residual = 4.83456e-06, No Iterations 5
GAMG:  Solving for p, Initial residual = 0.03133, Final residual = 0.0014443, No Iterations 2
time step continuity errors : sum local = 4.55207e-06, global = 9.00397e-07
GAMG:  Solving for p, Initial residual = 0.00457752, Final residual = 4.24416e-07, No Iterations 6
time step continuity errors : sum local = 1.34362e-09, global = 3.77423e-10, cumulative = 8.82619e-09
ExecutionTime = 5.69973 s  ClockTime = 6 s

Courant Number mean: 0.473277 max: 0.768439
Time = 98.9s

smoothSolver:  Solving for Ux, Initial residual = 0.011326, Final residual = 3.35111e-06, No Iterations 5
smoothSolver:  Solving for Uy, Initial residual = 0.0243892, Final residual = 4.92468e-06, No Iterations 5
GAMG:  Solving for p, Initial residual = 0.0309914, Final residual = 0.00145883, No Iterations 2
time step continuity errors : sum local = 4.66495e-06, global = 8.61457e-07
GAMG:  Solving for p, Initial residual = 0.00446129, Final residual = 4.26479e-07, No Iterations 6
time step continuity errors : sum local = 1.36896e-09, global = 3.66321e-10, cumulative = 9.19251e-09
ExecutionTime = 5.70265 s  ClockTime = 6 s

Courant Number mean: 0.473172 max: 0.766634
Time = 98.95s

smoothSolver:  Solving for Ux, Initial residual = 0.0112894, Final residual = 3.38504e-06, No Iterations 5
smoothSolver:  Solving for Uy, Initial residual = 0.0244942, Final residual = 5.01438e-06, No Iterations 5
GAMG:  Solving for p, Initial residual = 0.0295557, Final residual = 0.00143232, No Iterations 2
time step continuity errors : sum local = 4.6432e-06, global = 8.15951e-07
GAMG:  Solving for p, Initial residual = 0.00441061, Final residual = 3.86424e-07, No Iterations 6
time step continuity errors : sum local = 1.25813e-09, global = 2.97914e-10, cumulative = 9.49043e-09
ExecutionTime = 5.70562 s  ClockTime = 6 s

Courant Number mean: 0.47305 max: 0.765311
Time = 99s

smoothSolver:  Solving for Ux, Initial residual = 0.0112351, Final residual = 3.41822e-06, No Iterations 5
smoothSolver:  Solving for Uy, Initial residual = 0.0246577, Final residual = 5.09859e-06, No Iterations 5
GAMG:  Solving for p, Initial residual = 0.0302392, Final residual = 0.00140694, No Iterations 2
time step continuity errors : sum local = 4.62292e-06, global = 7.35008e-07
GAMG:  Solving for p, Initial residual = 0.00441106, Final residual = 3.27227e-07, No Iterations 6
time step continuity errors : sum local = 1.07903e-09, global = 2.77174e-10, cumulative = 9.7676e-09
ExecutionTime = 5.71206 s  ClockTime = 6 s

Courant Number mean: 0.472922 max: 0.766218
Time = 99.05s

smoothSolver:  Solving for Ux, Initial residual = 0.0111859, Final residual = 3.45091e-06, No Iterations 5
smoothSolver:  Solving for Uy, Initial residual = 0.0248226, Final residual = 5.18534e-06, No Iterations 5
GAMG:  Solving for p, Initial residual = 0.0303118, Final residual = 0.00145369, No Iterations 2
time step continuity errors : sum local = 4.83278e-06, global = 6.67347e-07
GAMG:  Solving for p, Initial residual = 0.0044197, Final residual = 7.60378e-07, No Iterations 5
time step continuity errors : sum local = 2.5361e-09, global = 2.54535e-11, cumulative = 9.79305e-09
ExecutionTime = 5.71493 s  ClockTime = 6 s

Courant Number mean: 0.472767 max: 0.765296
Time = 99.1s

smoothSolver:  Solving for Ux, Initial residual = 0.0111469, Final residual = 3.48081e-06, No Iterations 5
smoothSolver:  Solving for Uy, Initial residual = 0.0249797, Final residual = 5.27125e-06, No Iterations 5
GAMG:  Solving for p, Initial residual = 0.0293473, Final residual = 0.00145077, No Iterations 2
time step continuity errors : sum local = 4.87024e-06, global = 5.65825e-07
GAMG:  Solving for p, Initial residual = 0.00435006, Final residual = 4.9148e-07, No Iterations 5
time step continuity errors : sum local = 1.65287e-09, global = 2.16691e-10, cumulative = 1.00097e-08
ExecutionTime = 5.71773 s  ClockTime = 6 s

Courant Number mean: 0.472589 max: 0.762461
Time = 99.15s

smoothSolver:  Solving for Ux, Initial residual = 0.0111096, Final residual = 3.50917e-06, No Iterations 5
smoothSolver:  Solving for Uy, Initial residual = 0.0251233, Final residual = 5.35316e-06, No Iterations 5
GAMG:  Solving for p, Initial residual = 0.0291698, Final residual = 0.00140766, No Iterations 2
time step continuity errors : sum local = 4.7612e-06, global = 4.65125e-07
GAMG:  Solving for p, Initial residual = 0.00442994, Final residual = 5.40313e-07, No Iterations 5
time step continuity errors : sum local = 1.8315e-09, global = 9.77825e-11, cumulative = 1.01075e-08
ExecutionTime = 5.72057 s  ClockTime = 6 s

Courant Number mean: 0.472432 max: 0.762778
Time = 99.2s

smoothSolver:  Solving for Ux, Initial residual = 0.0110614, Final residual = 3.5348e-06, No Iterations 5
smoothSolver:  Solving for Uy, Initial residual = 0.0252702, Final residual = 5.43471e-06, No Iterations 5
GAMG:  Solving for p, Initial residual = 0.0292826, Final residual = 0.00138322, No Iterations 2
time step continuity errors : sum local = 4.70687e-06, global = 3.71946e-07
GAMG:  Solving for p, Initial residual = 0.00450186, Final residual = 5.45248e-07, No Iterations 5
time step continuity errors : sum local = 1.85688e-09, global = 4.05159e-10, cumulative = 1.05127e-08
ExecutionTime = 5.72332 s  ClockTime = 6 s

Courant Number mean: 0.472255 max: 0.762674
Time = 99.25s

smoothSolver:  Solving for Ux, Initial residual = 0.0110284, Final residual = 3.56271e-06, No Iterations 5
smoothSolver:  Solving for Uy, Initial residual = 0.0254469, Final residual = 5.5102e-06, No Iterations 5
GAMG:  Solving for p, Initial residual = 0.0288531, Final residual = 0.00141549, No Iterations 2
time step continuity errors : sum local = 4.83511e-06, global = 2.59926e-07
GAMG:  Solving for p, Initial residual = 0.0045145, Final residual = 3.79321e-07, No Iterations 5
time step continuity errors : sum local = 1.29667e-09, global = 4.83585e-10, cumulative = 1.09963e-08
ExecutionTime = 5.72616 s  ClockTime = 6 s

Courant Number mean: 0.472097 max: 0.760602
Time = 99.3s

smoothSolver:  Solving for Ux, Initial residual = 0.0109988, Final residual = 3.58289e-06, No Iterations 5
smoothSolver:  Solving for Uy, Initial residual = 0.02564, Final residual = 5.59315e-06, No Iterations 5
GAMG:  Solving for p, Initial residual = 0.029034, Final residual = 0.00139223, No Iterations 2
time step continuity errors : sum local = 4.77323e-06, global = 1.19073e-07
GAMG:  Solving for p, Initial residual = 0.004452, Final residual = 1.08347e-07, No Iterations 6
time step continuity errors : sum local = 3.71651e-10, global = 1.72089e-10, cumulative = 1.11684e-08
ExecutionTime = 5.72909 s  ClockTime = 6 s

Courant Number mean: 0.471959 max: 0.758512
Time = 99.35s

smoothSolver:  Solving for Ux, Initial residual = 0.0109478, Final residual = 3.60578e-06, No Iterations 5
smoothSolver:  Solving for Uy, Initial residual = 0.0258266, Final residual = 5.66956e-06, No Iterations 5
GAMG:  Solving for p, Initial residual = 0.0310184, Final residual = 0.00145187, No Iterations 2
time step continuity errors : sum local = 4.98983e-06, global = 3.18817e-08
GAMG:  Solving for p, Initial residual = 0.00458489, Final residual = 9.91163e-07, No Iterations 7
time step continuity errors : sum local = 3.41088e-09, global = -1.56143e-11, cumulative = 1.11527e-08
ExecutionTime = 5.73214 s  ClockTime = 6 s

Courant Number mean: 0.471811 max: 0.759109
Time = 99.4s

smoothSolver:  Solving for Ux, Initial residual = 0.010932, Final residual = 3.62769e-06, No Iterations 5
smoothSolver:  Solving for Uy, Initial residual = 0.0259964, Final residual = 5.73869e-06, No Iterations 5
GAMG:  Solving for p, Initial residual = 0.0306293, Final residual = 0.00142928, No Iterations 2
time step continuity errors : sum local = 4.92033e-06, global = -1.11823e-07
GAMG:  Solving for p, Initial residual = 0.00467494, Final residual = 3.72318e-07, No Iterations 5
time step continuity errors : sum local = 1.28173e-09, global = 5.61903e-11, cumulative = 1.12089e-08
ExecutionTime = 5.73498 s  ClockTime = 6 s

Courant Number mean: 0.471672 max: 0.757732
Time = 99.45s

smoothSolver:  Solving for Ux, Initial residual = 0.0109001, Final residual = 3.64312e-06, No Iterations 5
smoothSolver:  Solving for Uy, Initial residual = 0.026164, Final residual = 5.81636e-06, No Iterations 5
GAMG:  Solving for p, Initial residual = 0.029083, Final residual = 0.00140627, No Iterations 2
time step continuity errors : sum local = 4.83259e-06, global = -2.24382e-07
GAMG:  Solving for p, Initial residual = 0.00454188, Final residual = 3.48553e-07, No Iterations 5
time step continuity errors : sum local = 1.19655e-09, global = -7.92722e-11, cumulative = 1.11297e-08
ExecutionTime = 5.73779 s  ClockTime = 6 s

Courant Number mean: 0.471507 max: 0.754276
Time = 99.5s

smoothSolver:  Solving for Ux, Initial residual = 0.0108743, Final residual = 3.65991e-06, No Iterations 5
smoothSolver:  Solving for Uy, Initial residual = 0.02634, Final residual = 5.88607e-06, No Iterations 5
GAMG:  Solving for p, Initial residual = 0.02917, Final residual = 0.00138055, No Iterations 2
time step continuity errors : sum local = 4.73337e-06, global = -3.55445e-07
GAMG:  Solving for p, Initial residual = 0.00466924, Final residual = 5.81834e-07, No Iterations 5
time step continuity errors : sum local = 1.99441e-09, global = -5.11102e-10, cumulative = 1.06186e-08
ExecutionTime = 5.74057 s  ClockTime = 6 s

Courant Number mean: 0.471349 max: 0.754908
Time = 99.55s

smoothSolver:  Solving for Ux, Initial residual = 0.0108592, Final residual = 3.67685e-06, No Iterations 5
smoothSolver:  Solving for Uy, Initial residual = 0.0264971, Final residual = 5.95519e-06, No Iterations 5
GAMG:  Solving for p, Initial residual = 0.030203, Final residual = 0.00137876, No Iterations 2
time step continuity errors : sum local = 4.71157e-06, global = -4.65282e-07
GAMG:  Solving for p, Initial residual = 0.00479544, Final residual = 5.42147e-07, No Iterations 5
time step continuity errors : sum local = 1.8516e-09, global = -3.95632e-10, cumulative = 1.02229e-08
ExecutionTime = 5.74332 s  ClockTime = 6 s

Courant Number mean: 0.471195 max: 0.754119
Time = 99.6s

smoothSolver:  Solving for Ux, Initial residual = 0.010834, Final residual = 3.687e-06, No Iterations 5
smoothSolver:  Solving for Uy, Initial residual = 0.0266635, Final residual = 6.01784e-06, No Iterations 5
GAMG:  Solving for p, Initial residual = 0.0296526, Final residual = 0.0014227, No Iterations 2
time step continuity errors : sum local = 4.83975e-06, global = -5.89713e-07
GAMG:  Solving for p, Initial residual = 0.00470267, Final residual = 4.9982e-07, No Iterations 5
time step continuity errors : sum local = 1.6977e-09, global = -6.39825e-10, cumulative = 9.5831e-09
ExecutionTime = 5.74618 s  ClockTime = 6 s

Courant Number mean: 0.471016 max: 0.7512
Time = 99.65s

smoothSolver:  Solving for Ux, Initial residual = 0.010825, Final residual = 3.69808e-06, No Iterations 5
smoothSolver:  Solving for Uy, Initial residual = 0.0268283, Final residual = 6.08612e-06, No Iterations 5
GAMG:  Solving for p, Initial residual = 0.0292113, Final residual = 0.00136962, No Iterations 2
time step continuity errors : sum local = 4.62754e-06, global = -6.84119e-07
GAMG:  Solving for p, Initial residual = 0.00475337, Final residual = 6.89069e-07, No Iterations 5
time step continuity errors : sum local = 2.325e-09, global = -4.41803e-10, cumulative = 9.1413e-09
ExecutionTime = 5.74897 s  ClockTime = 6 s

Courant Number mean: 0.470843 max: 0.750406
Time = 99.7s

smoothSolver:  Solving for Ux, Initial residual = 0.0108058, Final residual = 3.70672e-06, No Iterations 5
smoothSolver:  Solving for Uy, Initial residual = 0.0269768, Final residual = 6.13973e-06, No Iterations 5
GAMG:  Solving for p, Initial residual = 0.0308442, Final residual = 0.00139452, No Iterations 2
time step continuity errors : sum local = 4.6753e-06, global = -7.68275e-07
GAMG:  Solving for p, Initial residual = 0.00485143, Final residual = 6.45049e-07, No Iterations 5
time step continuity errors : sum local = 2.15909e-09, global = -4.4828e-10, cumulative = 8.69302e-09
ExecutionTime = 5.75174 s  ClockTime = 6 s

Courant Number mean: 0.470668 max: 0.749998
Time = 99.75s

smoothSolver:  Solving for Ux, Initial residual = 0.0107912, Final residual = 3.71947e-06, No Iterations 5
smoothSolver:  Solving for Uy, Initial residual = 0.0271373, Final residual = 6.19945e-06, No Iterations 5
GAMG:  Solving for p, Initial residual = 0.0303755, Final residual = 0.00141933, No Iterations 2
time step continuity errors : sum local = 4.72218e-06, global = -8.75705e-07
GAMG:  Solving for p, Initial residual = 0.00478826, Final residual = 3.51966e-07, No Iterations 6
time step continuity errors : sum local = 1.16927e-09, global = -3.60458e-10, cumulative = 8.33256e-09
ExecutionTime = 5.7547 s  ClockTime = 6 s

Courant Number mean: 0.47056 max: 0.747511
Time = 99.8s

smoothSolver:  Solving for Ux, Initial residual = 0.0107753, Final residual = 3.72354e-06, No Iterations 5
smoothSolver:  Solving for Uy, Initial residual = 0.027291, Final residual = 6.26248e-06, No Iterations 5
GAMG:  Solving for p, Initial residual = 0.0319026, Final residual = 0.00145621, No Iterations 2
time step continuity errors : sum local = 4.78828e-06, global = -9.17008e-07
GAMG:  Solving for p, Initial residual = 0.00493422, Final residual = 3.62618e-07, No Iterations 6
time step continuity errors : sum local = 1.18773e-09, global = -3.79506e-10, cumulative = 7.95306e-09
ExecutionTime = 5.75765 s  ClockTime = 6 s

Courant Number mean: 0.470478 max: 0.746581
Time = 99.85s

smoothSolver:  Solving for Ux, Initial residual = 0.0107748, Final residual = 3.72907e-06, No Iterations 5
smoothSolver:  Solving for Uy, Initial residual = 0.0274062, Final residual = 6.31025e-06, No Iterations 5
GAMG:  Solving for p, Initial residual = 0.0322008, Final residual = 0.00141414, No Iterations 2
time step continuity errors : sum local = 4.59076e-06, global = -9.51086e-07
GAMG:  Solving for p, Initial residual = 0.00501135, Final residual = 4.17637e-07, No Iterations 6
time step continuity errors : sum local = 1.35154e-09, global = -4.39827e-10, cumulative = 7.51323e-09
ExecutionTime = 5.76056 s  ClockTime = 6 s

Courant Number mean: 0.470373 max: 0.748035
Time = 99.9s

smoothSolver:  Solving for Ux, Initial residual = 0.0107678, Final residual = 3.73138e-06, No Iterations 5
smoothSolver:  Solving for Uy, Initial residual = 0.0275268, Final residual = 6.35139e-06, No Iterations 5
GAMG:  Solving for p, Initial residual = 0.0316822, Final residual = 0.00146166, No Iterations 2
time step continuity errors : sum local = 4.68294e-06, global = -1.02291e-06
GAMG:  Solving for p, Initial residual = 0.00493587, Final residual = 3.23809e-07, No Iterations 6
time step continuity errors : sum local = 1.03459e-09, global = -3.78653e-10, cumulative = 7.13458e-09
ExecutionTime = 5.76347 s  ClockTime = 6 s

Courant Number mean: 0.470284 max: 0.750831
Time = 99.95s

smoothSolver:  Solving for Ux, Initial residual = 0.0107703, Final residual = 3.73238e-06, No Iterations 5
smoothSolver:  Solving for Uy, Initial residual = 0.0276265, Final residual = 6.40342e-06, No Iterations 5
GAMG:  Solving for p, Initial residual = 0.0317993, Final residual = 0.0014535, No Iterations 2
time step continuity errors : sum local = 4.59495e-06, global = -1.018e-06
GAMG:  Solving for p, Initial residual = 0.00490043, Final residual = 2.62657e-07, No Iterations 6
time step continuity errors : sum local = 8.28296e-10, global = -3.35292e-10, cumulative = 6.79928e-09
ExecutionTime = 5.76644 s  ClockTime = 6 s

Courant Number mean: 0.470259 max: 0.75247
Time = 100s

smoothSolver:  Solving for Ux, Initial residual = 0.0107746, Final residual = 3.73354e-06, No Iterations 5
smoothSolver:  Solving for Uy, Initial residual = 0.0276808, Final residual = 6.42177e-06, No Iterations 5
GAMG:  Solving for p, Initial residual = 0.0337514, Final residual = 0.00153201, No Iterations 2
time step continuity errors : sum local = 4.77018e-06, global = -1.03795e-06
GAMG:  Solving for p, Initial residual = 0.00509808, Final residual = 4.22543e-07, No Iterations 6
time step continuity errors : sum local = 1.31051e-09, global = -4.60038e-10, cumulative = 6.33925e-09
ExecutionTime = 5.77293 s  ClockTime = 6 s

End

