/*---------------------------------------------------------------------------*\
  =========                 |
  \\      /  F ield         | OpenFOAM: The Open Source CFD Toolbox
   \\    /   O peration     | Website:  https://openfoam.org
    \\  /    A nd           | Version:  10
     \\/     M anipulation  |
\*---------------------------------------------------------------------------*/
Build  : 10-c4cf895ad8fa
Exec   : scalarTransportFoam
Date   : Mar 07 2025
Time   : 10:55:10
Host   : "HWLAP0350-EPS"
PID    : 8407
I/O    : uncollated
Case   : /home/ap2095/OpenFOAM/ap2095-10/run/6pitzDaily_passive_scalar_scalarTransportFoam_single_phase
nProcs : 1
sigFpe : Enabling floating point exception trapping (FOAM_SIGFPE).
fileModificationChecking : Monitoring run-time modified files using timeStampMaster (fileModificationSkew 10)
allowSystemOperations : Allowing user-supplied system call operations

// * * * * * * * * * * * * * * * * * * * * * * * * * * * * * * * * * * * * * //
Create time

Create mesh for time = 0


SIMPLE: No convergence criteria found

Reading field T

Reading field U

Reading physicalProperties

Reading diffusivity DT

Reading/calculating face flux field phi

No fvModels present
No fvConstraints present

Calculating scalar transport

Courant Number mean: 0.0693138 max: 0.263174
Time = 1e-05s

DILUPBiCGStab:  Solving for T, Initial residual = 1, Final residual = 1.35666e-07, No Iterations 2
Time = 2e-05s

DILUPBiCGStab:  Solving for T, Initial residual = 0.198294, Final residual = 3.22013e-08, No Iterations 2
Time = 3e-05s

DILUPBiCGStab:  Solving for T, Initial residual = 0.102277, Final residual = 5.4975e-07, No Iterations 2
Time = 4e-05s

DILUPBiCGStab:  Solving for T, Initial residual = 0.0728247, Final residual = 4.07911e-07, No Iterations 2
Time = 5e-05s

DILUPBiCGStab:  Solving for T, Initial residual = 0.0557135, Final residual = 3.12744e-07, No Iterations 2
Time = 6e-05s

DILUPBiCGStab:  Solving for T, Initial residual = 0.0432896, Final residual = 2.37576e-07, No Iterations 2
Time = 7e-05s

DILUPBiCGStab:  Solving for T, Initial residual = 0.0358254, Final residual = 1.82549e-07, No Iterations 2
Time = 8e-05s

DILUPBiCGStab:  Solving for T, Initial residual = 0.0305243, Final residual = 1.41931e-07, No Iterations 2
Time = 9e-05s

DILUPBiCGStab:  Solving for T, Initial residual = 0.0264895, Final residual = 1.16606e-07, No Iterations 2
Time = 0.0001s

DILUPBiCGStab:  Solving for T, Initial residual = 0.0231696, Final residual = 9.81918e-08, No Iterations 2
Time = 0.00011s

DILUPBiCGStab:  Solving for T, Initial residual = 0.0207678, Final residual = 8.47786e-08, No Iterations 2
Time = 0.00012s

DILUPBiCGStab:  Solving for T, Initial residual = 0.0188028, Final residual = 7.78823e-08, No Iterations 2
Time = 0.00013s

DILUPBiCGStab:  Solving for T, Initial residual = 0.0171615, Final residual = 7.47854e-08, No Iterations 2
Time = 0.00014s

DILUPBiCGStab:  Solving for T, Initial residual = 0.0157603, Final residual = 7.20474e-08, No Iterations 2
Time = 0.00015s

DILUPBiCGStab:  Solving for T, Initial residual = 0.0146269, Final residual = 6.86159e-08, No Iterations 2
Time = 0.00016s

DILUPBiCGStab:  Solving for T, Initial residual = 0.0136488, Final residual = 6.51832e-08, No Iterations 2
Time = 0.00017s

DILUPBiCGStab:  Solving for T, Initial residual = 0.0127897, Final residual = 6.15406e-08, No Iterations 2
Time = 0.00018s

DILUPBiCGStab:  Solving for T, Initial residual = 0.0120269, Final residual = 5.80104e-08, No Iterations 2
Time = 0.00019s

DILUPBiCGStab:  Solving for T, Initial residual = 0.0113745, Final residual = 5.46405e-08, No Iterations 2
Time = 0.0002s

DILUPBiCGStab:  Solving for T, Initial residual = 0.0108044, Final residual = 5.14743e-08, No Iterations 2
Time = 0.00021s

DILUPBiCGStab:  Solving for T, Initial residual = 0.010283, Final residual = 4.84982e-08, No Iterations 2
Time = 0.00022s

DILUPBiCGStab:  Solving for T, Initial residual = 0.00980492, Final residual = 4.57469e-08, No Iterations 2
Time = 0.00023s

DILUPBiCGStab:  Solving for T, Initial residual = 0.00937876, Final residual = 4.33363e-08, No Iterations 2
Time = 0.00024s

DILUPBiCGStab:  Solving for T, Initial residual = 0.00899857, Final residual = 4.11699e-08, No Iterations 2
Time = 0.00025s

DILUPBiCGStab:  Solving for T, Initial residual = 0.00864995, Final residual = 3.92093e-08, No Iterations 2
Time = 0.00026s

DILUPBiCGStab:  Solving for T, Initial residual = 0.00832435, Final residual = 3.73909e-08, No Iterations 2
Time = 0.00027s

DILUPBiCGStab:  Solving for T, Initial residual = 0.00802504, Final residual = 3.57047e-08, No Iterations 2
Time = 0.00028s

DILUPBiCGStab:  Solving for T, Initial residual = 0.00775002, Final residual = 3.4159e-08, No Iterations 2
Time = 0.00029s

DILUPBiCGStab:  Solving for T, Initial residual = 0.00749404, Final residual = 3.28352e-08, No Iterations 2
Time = 0.0003s

DILUPBiCGStab:  Solving for T, Initial residual = 0.00725478, Final residual = 3.16256e-08, No Iterations 2
Time = 0.00031s

DILUPBiCGStab:  Solving for T, Initial residual = 0.00703544, Final residual = 3.05071e-08, No Iterations 2
Time = 0.00032s

DILUPBiCGStab:  Solving for T, Initial residual = 0.00682841, Final residual = 2.94926e-08, No Iterations 2
Time = 0.00033s

DILUPBiCGStab:  Solving for T, Initial residual = 0.00663196, Final residual = 2.85882e-08, No Iterations 2
Time = 0.00034s

DILUPBiCGStab:  Solving for T, Initial residual = 0.00644745, Final residual = 2.77701e-08, No Iterations 2
Time = 0.00035s

DILUPBiCGStab:  Solving for T, Initial residual = 0.00627465, Final residual = 2.70136e-08, No Iterations 2
Time = 0.00036s

DILUPBiCGStab:  Solving for T, Initial residual = 0.00611146, Final residual = 2.63101e-08, No Iterations 2
Time = 0.00037s

DILUPBiCGStab:  Solving for T, Initial residual = 0.0059573, Final residual = 2.56764e-08, No Iterations 2
Time = 0.00038s

DILUPBiCGStab:  Solving for T, Initial residual = 0.00581161, Final residual = 2.51023e-08, No Iterations 2
Time = 0.00039s

DILUPBiCGStab:  Solving for T, Initial residual = 0.00567229, Final residual = 2.45794e-08, No Iterations 2
Time = 0.0004s

DILUPBiCGStab:  Solving for T, Initial residual = 0.0055392, Final residual = 2.41e-08, No Iterations 2
Time = 0.00041s

DILUPBiCGStab:  Solving for T, Initial residual = 0.00541309, Final residual = 2.37012e-08, No Iterations 2
Time = 0.00042s

DILUPBiCGStab:  Solving for T, Initial residual = 0.00529297, Final residual = 2.33412e-08, No Iterations 2
Time = 0.00043s

DILUPBiCGStab:  Solving for T, Initial residual = 0.00517853, Final residual = 2.30119e-08, No Iterations 2
Time = 0.00044s

DILUPBiCGStab:  Solving for T, Initial residual = 0.00506958, Final residual = 2.27103e-08, No Iterations 2
Time = 0.00045s

DILUPBiCGStab:  Solving for T, Initial residual = 0.00496475, Final residual = 2.24253e-08, No Iterations 2
Time = 0.00046s

DILUPBiCGStab:  Solving for T, Initial residual = 0.00486381, Final residual = 2.21769e-08, No Iterations 2
Time = 0.00047s

DILUPBiCGStab:  Solving for T, Initial residual = 0.00476708, Final residual = 9.92466e-07, No Iterations 1
Time = 0.00048s

DILUPBiCGStab:  Solving for T, Initial residual = 0.00467436, Final residual = 9.80526e-07, No Iterations 1
Time = 0.00049s

DILUPBiCGStab:  Solving for T, Initial residual = 0.00458554, Final residual = 9.69098e-07, No Iterations 1
Time = 0.0005s

DILUPBiCGStab:  Solving for T, Initial residual = 0.00450029, Final residual = 9.58425e-07, No Iterations 1
Time = 0.00051s

DILUPBiCGStab:  Solving for T, Initial residual = 0.00441831, Final residual = 9.48821e-07, No Iterations 1
Time = 0.00052s

DILUPBiCGStab:  Solving for T, Initial residual = 0.004339, Final residual = 9.39639e-07, No Iterations 1
Time = 0.00053s

DILUPBiCGStab:  Solving for T, Initial residual = 0.00426218, Final residual = 9.30895e-07, No Iterations 1
Time = 0.00054s

DILUPBiCGStab:  Solving for T, Initial residual = 0.00418819, Final residual = 9.22922e-07, No Iterations 1
Time = 0.00055s

DILUPBiCGStab:  Solving for T, Initial residual = 0.00411688, Final residual = 9.15107e-07, No Iterations 1
Time = 0.00056s

DILUPBiCGStab:  Solving for T, Initial residual = 0.00404814, Final residual = 9.08152e-07, No Iterations 1
Time = 0.00057s

DILUPBiCGStab:  Solving for T, Initial residual = 0.00398182, Final residual = 9.01854e-07, No Iterations 1
Time = 0.00058s

DILUPBiCGStab:  Solving for T, Initial residual = 0.00391763, Final residual = 8.95899e-07, No Iterations 1
Time = 0.00059s

DILUPBiCGStab:  Solving for T, Initial residual = 0.00385523, Final residual = 8.90147e-07, No Iterations 1
Time = 0.0006s

DILUPBiCGStab:  Solving for T, Initial residual = 0.00379462, Final residual = 8.84581e-07, No Iterations 1
Time = 0.00061s

DILUPBiCGStab:  Solving for T, Initial residual = 0.00373597, Final residual = 8.79335e-07, No Iterations 1
Time = 0.00062s

DILUPBiCGStab:  Solving for T, Initial residual = 0.00367921, Final residual = 8.74507e-07, No Iterations 1
Time = 0.00063s

DILUPBiCGStab:  Solving for T, Initial residual = 0.00362426, Final residual = 8.70115e-07, No Iterations 1
Time = 0.00064s

DILUPBiCGStab:  Solving for T, Initial residual = 0.00357103, Final residual = 8.6612e-07, No Iterations 1
Time = 0.00065s

DILUPBiCGStab:  Solving for T, Initial residual = 0.00351924, Final residual = 8.62501e-07, No Iterations 1
Time = 0.00066s

DILUPBiCGStab:  Solving for T, Initial residual = 0.00346872, Final residual = 8.59271e-07, No Iterations 1
Time = 0.00067s

DILUPBiCGStab:  Solving for T, Initial residual = 0.00341954, Final residual = 8.56386e-07, No Iterations 1
Time = 0.00068s

DILUPBiCGStab:  Solving for T, Initial residual = 0.00337178, Final residual = 8.53906e-07, No Iterations 1
Time = 0.00069s

DILUPBiCGStab:  Solving for T, Initial residual = 0.00332541, Final residual = 8.51763e-07, No Iterations 1
Time = 0.0007s

DILUPBiCGStab:  Solving for T, Initial residual = 0.00328036, Final residual = 8.49762e-07, No Iterations 1
Time = 0.00071s

DILUPBiCGStab:  Solving for T, Initial residual = 0.00323658, Final residual = 8.47918e-07, No Iterations 1
Time = 0.00072s

DILUPBiCGStab:  Solving for T, Initial residual = 0.00319381, Final residual = 8.46406e-07, No Iterations 1
Time = 0.00073s

DILUPBiCGStab:  Solving for T, Initial residual = 0.00315197, Final residual = 8.45288e-07, No Iterations 1
Time = 0.00074s

DILUPBiCGStab:  Solving for T, Initial residual = 0.00311118, Final residual = 8.44619e-07, No Iterations 1
Time = 0.00075s

DILUPBiCGStab:  Solving for T, Initial residual = 0.00307146, Final residual = 8.44455e-07, No Iterations 1
Time = 0.00076s

DILUPBiCGStab:  Solving for T, Initial residual = 0.00303279, Final residual = 8.44581e-07, No Iterations 1
Time = 0.00077s

DILUPBiCGStab:  Solving for T, Initial residual = 0.00299512, Final residual = 8.44853e-07, No Iterations 1
Time = 0.00078s

DILUPBiCGStab:  Solving for T, Initial residual = 0.00295837, Final residual = 8.45418e-07, No Iterations 1
Time = 0.00079s

DILUPBiCGStab:  Solving for T, Initial residual = 0.00292238, Final residual = 8.46173e-07, No Iterations 1
Time = 0.0008s

DILUPBiCGStab:  Solving for T, Initial residual = 0.0028871, Final residual = 8.474e-07, No Iterations 1
Time = 0.00081s

DILUPBiCGStab:  Solving for T, Initial residual = 0.00285266, Final residual = 8.48966e-07, No Iterations 1
Time = 0.00082s

DILUPBiCGStab:  Solving for T, Initial residual = 0.00281905, Final residual = 8.50918e-07, No Iterations 1
Time = 0.00083s

DILUPBiCGStab:  Solving for T, Initial residual = 0.00278625, Final residual = 8.53177e-07, No Iterations 1
Time = 0.00084s

DILUPBiCGStab:  Solving for T, Initial residual = 0.00275423, Final residual = 8.55656e-07, No Iterations 1
Time = 0.00085s

DILUPBiCGStab:  Solving for T, Initial residual = 0.00272286, Final residual = 8.58398e-07, No Iterations 1
Time = 0.00086s

DILUPBiCGStab:  Solving for T, Initial residual = 0.00269208, Final residual = 8.6153e-07, No Iterations 1
Time = 0.00087s

DILUPBiCGStab:  Solving for T, Initial residual = 0.0026619, Final residual = 8.64982e-07, No Iterations 1
Time = 0.00088s

DILUPBiCGStab:  Solving for T, Initial residual = 0.00263238, Final residual = 8.6878e-07, No Iterations 1
Time = 0.00089s

DILUPBiCGStab:  Solving for T, Initial residual = 0.00260353, Final residual = 8.72927e-07, No Iterations 1
Time = 0.0009s

DILUPBiCGStab:  Solving for T, Initial residual = 0.00257531, Final residual = 8.77361e-07, No Iterations 1
Time = 0.00091s

DILUPBiCGStab:  Solving for T, Initial residual = 0.00254768, Final residual = 8.82275e-07, No Iterations 1
Time = 0.00092s

DILUPBiCGStab:  Solving for T, Initial residual = 0.00252054, Final residual = 8.87524e-07, No Iterations 1
Time = 0.00093s

DILUPBiCGStab:  Solving for T, Initial residual = 0.00249386, Final residual = 8.92924e-07, No Iterations 1
Time = 0.00094s

DILUPBiCGStab:  Solving for T, Initial residual = 0.00246771, Final residual = 8.98538e-07, No Iterations 1
Time = 0.00095s

DILUPBiCGStab:  Solving for T, Initial residual = 0.0024421, Final residual = 9.0444e-07, No Iterations 1
Time = 0.00096s

DILUPBiCGStab:  Solving for T, Initial residual = 0.00241701, Final residual = 9.10559e-07, No Iterations 1
Time = 0.00097s

DILUPBiCGStab:  Solving for T, Initial residual = 0.00239244, Final residual = 9.17161e-07, No Iterations 1
Time = 0.00098s

DILUPBiCGStab:  Solving for T, Initial residual = 0.00236829, Final residual = 9.24028e-07, No Iterations 1
Time = 0.00099s

DILUPBiCGStab:  Solving for T, Initial residual = 0.00234452, Final residual = 9.3121e-07, No Iterations 1
Time = 0.001s

DILUPBiCGStab:  Solving for T, Initial residual = 0.00232116, Final residual = 9.38699e-07, No Iterations 1
Time = 0.00101s

DILUPBiCGStab:  Solving for T, Initial residual = 0.00229825, Final residual = 9.46434e-07, No Iterations 1
Time = 0.00102s

DILUPBiCGStab:  Solving for T, Initial residual = 0.00227578, Final residual = 9.54356e-07, No Iterations 1
Time = 0.00103s

DILUPBiCGStab:  Solving for T, Initial residual = 0.00225374, Final residual = 9.62431e-07, No Iterations 1
Time = 0.00104s

DILUPBiCGStab:  Solving for T, Initial residual = 0.00223207, Final residual = 9.70692e-07, No Iterations 1
Time = 0.00105s

DILUPBiCGStab:  Solving for T, Initial residual = 0.00221074, Final residual = 9.79066e-07, No Iterations 1
Time = 0.00106s

DILUPBiCGStab:  Solving for T, Initial residual = 0.00218973, Final residual = 9.8769e-07, No Iterations 1
Time = 0.00107s

DILUPBiCGStab:  Solving for T, Initial residual = 0.0021691, Final residual = 9.96719e-07, No Iterations 1
Time = 0.00108s

DILUPBiCGStab:  Solving for T, Initial residual = 0.00214883, Final residual = 4.36904e-08, No Iterations 2
Time = 0.00109s

DILUPBiCGStab:  Solving for T, Initial residual = 0.00212891, Final residual = 4.45885e-08, No Iterations 2
Time = 0.0011s

DILUPBiCGStab:  Solving for T, Initial residual = 0.0021093, Final residual = 4.54953e-08, No Iterations 2
Time = 0.00111s

DILUPBiCGStab:  Solving for T, Initial residual = 0.00208999, Final residual = 4.64025e-08, No Iterations 2
Time = 0.00112s

DILUPBiCGStab:  Solving for T, Initial residual = 0.00207101, Final residual = 4.73079e-08, No Iterations 2
Time = 0.00113s

DILUPBiCGStab:  Solving for T, Initial residual = 0.00205233, Final residual = 4.82125e-08, No Iterations 2
Time = 0.00114s

DILUPBiCGStab:  Solving for T, Initial residual = 0.00203394, Final residual = 4.91185e-08, No Iterations 2
Time = 0.00115s

DILUPBiCGStab:  Solving for T, Initial residual = 0.00201581, Final residual = 5.00172e-08, No Iterations 2
Time = 0.00116s

DILUPBiCGStab:  Solving for T, Initial residual = 0.00199798, Final residual = 5.09136e-08, No Iterations 2
Time = 0.00117s

DILUPBiCGStab:  Solving for T, Initial residual = 0.00198044, Final residual = 5.18011e-08, No Iterations 2
Time = 0.00118s

DILUPBiCGStab:  Solving for T, Initial residual = 0.00196316, Final residual = 5.26759e-08, No Iterations 2
Time = 0.00119s

DILUPBiCGStab:  Solving for T, Initial residual = 0.00194611, Final residual = 5.35397e-08, No Iterations 2
Time = 0.0012s

DILUPBiCGStab:  Solving for T, Initial residual = 0.00192933, Final residual = 5.4395e-08, No Iterations 2
Time = 0.00121s

DILUPBiCGStab:  Solving for T, Initial residual = 0.00191281, Final residual = 5.52465e-08, No Iterations 2
Time = 0.00122s

DILUPBiCGStab:  Solving for T, Initial residual = 0.00189653, Final residual = 5.60832e-08, No Iterations 2
Time = 0.00123s

DILUPBiCGStab:  Solving for T, Initial residual = 0.00188048, Final residual = 5.69057e-08, No Iterations 2
Time = 0.00124s

DILUPBiCGStab:  Solving for T, Initial residual = 0.00186464, Final residual = 5.77204e-08, No Iterations 2
Time = 0.00125s

DILUPBiCGStab:  Solving for T, Initial residual = 0.00184905, Final residual = 5.8517e-08, No Iterations 2
Time = 0.00126s

DILUPBiCGStab:  Solving for T, Initial residual = 0.00183369, Final residual = 5.92969e-08, No Iterations 2
Time = 0.00127s

DILUPBiCGStab:  Solving for T, Initial residual = 0.00181854, Final residual = 6.0063e-08, No Iterations 2
Time = 0.00128s

DILUPBiCGStab:  Solving for T, Initial residual = 0.00180358, Final residual = 6.08177e-08, No Iterations 2
Time = 0.00129s

DILUPBiCGStab:  Solving for T, Initial residual = 0.00178883, Final residual = 6.1548e-08, No Iterations 2
Time = 0.0013s

DILUPBiCGStab:  Solving for T, Initial residual = 0.00177431, Final residual = 6.22584e-08, No Iterations 2
Time = 0.00131s

DILUPBiCGStab:  Solving for T, Initial residual = 0.00175997, Final residual = 6.29497e-08, No Iterations 2
Time = 0.00132s

DILUPBiCGStab:  Solving for T, Initial residual = 0.00174582, Final residual = 6.3622e-08, No Iterations 2
Time = 0.00133s

DILUPBiCGStab:  Solving for T, Initial residual = 0.00173185, Final residual = 6.42808e-08, No Iterations 2
Time = 0.00134s

DILUPBiCGStab:  Solving for T, Initial residual = 0.00171809, Final residual = 6.49352e-08, No Iterations 2
Time = 0.00135s

DILUPBiCGStab:  Solving for T, Initial residual = 0.00170451, Final residual = 6.55845e-08, No Iterations 2
Time = 0.00136s

DILUPBiCGStab:  Solving for T, Initial residual = 0.00169111, Final residual = 6.62124e-08, No Iterations 2
Time = 0.00137s

DILUPBiCGStab:  Solving for T, Initial residual = 0.00167786, Final residual = 6.682e-08, No Iterations 2
Time = 0.00138s

DILUPBiCGStab:  Solving for T, Initial residual = 0.00166479, Final residual = 6.74172e-08, No Iterations 2
Time = 0.00139s

DILUPBiCGStab:  Solving for T, Initial residual = 0.0016519, Final residual = 6.79952e-08, No Iterations 2
Time = 0.0014s

DILUPBiCGStab:  Solving for T, Initial residual = 0.00163918, Final residual = 6.8571e-08, No Iterations 2
Time = 0.00141s

DILUPBiCGStab:  Solving for T, Initial residual = 0.00162662, Final residual = 6.91344e-08, No Iterations 2
Time = 0.00142s

DILUPBiCGStab:  Solving for T, Initial residual = 0.0016142, Final residual = 6.9679e-08, No Iterations 2
Time = 0.00143s

DILUPBiCGStab:  Solving for T, Initial residual = 0.00160194, Final residual = 7.01978e-08, No Iterations 2
Time = 0.00144s

DILUPBiCGStab:  Solving for T, Initial residual = 0.00158986, Final residual = 7.06929e-08, No Iterations 2
Time = 0.00145s

DILUPBiCGStab:  Solving for T, Initial residual = 0.00157792, Final residual = 7.1168e-08, No Iterations 2
Time = 0.00146s

DILUPBiCGStab:  Solving for T, Initial residual = 0.00156611, Final residual = 7.16328e-08, No Iterations 2
Time = 0.00147s

DILUPBiCGStab:  Solving for T, Initial residual = 0.00155445, Final residual = 7.21009e-08, No Iterations 2
Time = 0.00148s

DILUPBiCGStab:  Solving for T, Initial residual = 0.00154294, Final residual = 7.25687e-08, No Iterations 2
Time = 0.00149s

DILUPBiCGStab:  Solving for T, Initial residual = 0.00153158, Final residual = 7.30437e-08, No Iterations 2
Time = 0.0015s

DILUPBiCGStab:  Solving for T, Initial residual = 0.00152035, Final residual = 7.3517e-08, No Iterations 2
Time = 0.00151s

DILUPBiCGStab:  Solving for T, Initial residual = 0.00150925, Final residual = 7.39724e-08, No Iterations 2
Time = 0.00152s

DILUPBiCGStab:  Solving for T, Initial residual = 0.00149828, Final residual = 7.44077e-08, No Iterations 2
Time = 0.00153s

DILUPBiCGStab:  Solving for T, Initial residual = 0.00148745, Final residual = 7.4821e-08, No Iterations 2
Time = 0.00154s

DILUPBiCGStab:  Solving for T, Initial residual = 0.00147675, Final residual = 7.52176e-08, No Iterations 2
Time = 0.00155s

DILUPBiCGStab:  Solving for T, Initial residual = 0.00146618, Final residual = 7.56016e-08, No Iterations 2
Time = 0.00156s

DILUPBiCGStab:  Solving for T, Initial residual = 0.00145573, Final residual = 7.59655e-08, No Iterations 2
Time = 0.00157s

DILUPBiCGStab:  Solving for T, Initial residual = 0.00144539, Final residual = 7.6308e-08, No Iterations 2
Time = 0.00158s

DILUPBiCGStab:  Solving for T, Initial residual = 0.00143519, Final residual = 7.66267e-08, No Iterations 2
Time = 0.00159s

DILUPBiCGStab:  Solving for T, Initial residual = 0.00142511, Final residual = 7.69263e-08, No Iterations 2
Time = 0.0016s

DILUPBiCGStab:  Solving for T, Initial residual = 0.00141514, Final residual = 7.72051e-08, No Iterations 2
Time = 0.00161s

DILUPBiCGStab:  Solving for T, Initial residual = 0.00140529, Final residual = 7.74636e-08, No Iterations 2
Time = 0.00162s

DILUPBiCGStab:  Solving for T, Initial residual = 0.00139554, Final residual = 7.77012e-08, No Iterations 2
Time = 0.00163s

DILUPBiCGStab:  Solving for T, Initial residual = 0.00138591, Final residual = 7.79172e-08, No Iterations 2
Time = 0.00164s

DILUPBiCGStab:  Solving for T, Initial residual = 0.0013764, Final residual = 7.81161e-08, No Iterations 2
Time = 0.00165s

DILUPBiCGStab:  Solving for T, Initial residual = 0.001367, Final residual = 7.82894e-08, No Iterations 2
Time = 0.00166s

DILUPBiCGStab:  Solving for T, Initial residual = 0.0013577, Final residual = 7.84385e-08, No Iterations 2
Time = 0.00167s

DILUPBiCGStab:  Solving for T, Initial residual = 0.00134849, Final residual = 7.85678e-08, No Iterations 2
Time = 0.00168s

DILUPBiCGStab:  Solving for T, Initial residual = 0.0013394, Final residual = 7.86773e-08, No Iterations 2
Time = 0.00169s

DILUPBiCGStab:  Solving for T, Initial residual = 0.00133042, Final residual = 7.8773e-08, No Iterations 2
Time = 0.0017s

DILUPBiCGStab:  Solving for T, Initial residual = 0.00132154, Final residual = 7.88512e-08, No Iterations 2
Time = 0.00171s

DILUPBiCGStab:  Solving for T, Initial residual = 0.00131275, Final residual = 7.89128e-08, No Iterations 2
Time = 0.00172s

DILUPBiCGStab:  Solving for T, Initial residual = 0.00130406, Final residual = 7.89584e-08, No Iterations 2
Time = 0.00173s

DILUPBiCGStab:  Solving for T, Initial residual = 0.00129546, Final residual = 7.89832e-08, No Iterations 2
Time = 0.00174s

DILUPBiCGStab:  Solving for T, Initial residual = 0.00128697, Final residual = 7.8993e-08, No Iterations 2
Time = 0.00175s

DILUPBiCGStab:  Solving for T, Initial residual = 0.00127858, Final residual = 7.89852e-08, No Iterations 2
Time = 0.00176s

DILUPBiCGStab:  Solving for T, Initial residual = 0.00127027, Final residual = 7.89578e-08, No Iterations 2
Time = 0.00177s

DILUPBiCGStab:  Solving for T, Initial residual = 0.00126205, Final residual = 7.8909e-08, No Iterations 2
Time = 0.00178s

DILUPBiCGStab:  Solving for T, Initial residual = 0.00125392, Final residual = 7.88537e-08, No Iterations 2
Time = 0.00179s

DILUPBiCGStab:  Solving for T, Initial residual = 0.00124589, Final residual = 7.8801e-08, No Iterations 2
Time = 0.0018s

DILUPBiCGStab:  Solving for T, Initial residual = 0.00123795, Final residual = 7.8734e-08, No Iterations 2
Time = 0.00181s

DILUPBiCGStab:  Solving for T, Initial residual = 0.00123009, Final residual = 7.86513e-08, No Iterations 2
Time = 0.00182s

DILUPBiCGStab:  Solving for T, Initial residual = 0.00122231, Final residual = 7.8557e-08, No Iterations 2
Time = 0.00183s

DILUPBiCGStab:  Solving for T, Initial residual = 0.00121462, Final residual = 7.84482e-08, No Iterations 2
Time = 0.00184s

DILUPBiCGStab:  Solving for T, Initial residual = 0.00120701, Final residual = 7.8324e-08, No Iterations 2
Time = 0.00185s

DILUPBiCGStab:  Solving for T, Initial residual = 0.00119949, Final residual = 7.81855e-08, No Iterations 2
Time = 0.00186s

DILUPBiCGStab:  Solving for T, Initial residual = 0.00119206, Final residual = 7.80373e-08, No Iterations 2
Time = 0.00187s

DILUPBiCGStab:  Solving for T, Initial residual = 0.0011847, Final residual = 7.78763e-08, No Iterations 2
Time = 0.00188s

DILUPBiCGStab:  Solving for T, Initial residual = 0.00117741, Final residual = 7.7702e-08, No Iterations 2
Time = 0.00189s

DILUPBiCGStab:  Solving for T, Initial residual = 0.00117021, Final residual = 7.75171e-08, No Iterations 2
Time = 0.0019s

DILUPBiCGStab:  Solving for T, Initial residual = 0.00116308, Final residual = 7.73194e-08, No Iterations 2
Time = 0.00191s

DILUPBiCGStab:  Solving for T, Initial residual = 0.00115604, Final residual = 7.71097e-08, No Iterations 2
Time = 0.00192s

DILUPBiCGStab:  Solving for T, Initial residual = 0.00114907, Final residual = 7.68896e-08, No Iterations 2
Time = 0.00193s

DILUPBiCGStab:  Solving for T, Initial residual = 0.00114217, Final residual = 7.66603e-08, No Iterations 2
Time = 0.00194s

DILUPBiCGStab:  Solving for T, Initial residual = 0.00113534, Final residual = 7.64192e-08, No Iterations 2
Time = 0.00195s

DILUPBiCGStab:  Solving for T, Initial residual = 0.00112858, Final residual = 7.61668e-08, No Iterations 2
Time = 0.00196s

DILUPBiCGStab:  Solving for T, Initial residual = 0.0011219, Final residual = 7.5905e-08, No Iterations 2
Time = 0.00197s

DILUPBiCGStab:  Solving for T, Initial residual = 0.0011153, Final residual = 7.56335e-08, No Iterations 2
Time = 0.00198s

DILUPBiCGStab:  Solving for T, Initial residual = 0.00110876, Final residual = 7.53524e-08, No Iterations 2
Time = 0.00199s

DILUPBiCGStab:  Solving for T, Initial residual = 0.00110229, Final residual = 7.50621e-08, No Iterations 2
Time = 0.002s

DILUPBiCGStab:  Solving for T, Initial residual = 0.00109588, Final residual = 7.47651e-08, No Iterations 2
Time = 0.00201s

DILUPBiCGStab:  Solving for T, Initial residual = 0.00108954, Final residual = 7.44597e-08, No Iterations 2
Time = 0.00202s

DILUPBiCGStab:  Solving for T, Initial residual = 0.00108328, Final residual = 7.41462e-08, No Iterations 2
Time = 0.00203s

DILUPBiCGStab:  Solving for T, Initial residual = 0.00107708, Final residual = 7.38265e-08, No Iterations 2
Time = 0.00204s

DILUPBiCGStab:  Solving for T, Initial residual = 0.00107094, Final residual = 7.34996e-08, No Iterations 2
Time = 0.00205s

DILUPBiCGStab:  Solving for T, Initial residual = 0.00106486, Final residual = 7.31643e-08, No Iterations 2
Time = 0.00206s

DILUPBiCGStab:  Solving for T, Initial residual = 0.00105885, Final residual = 7.2824e-08, No Iterations 2
Time = 0.00207s

DILUPBiCGStab:  Solving for T, Initial residual = 0.0010529, Final residual = 7.24787e-08, No Iterations 2
Time = 0.00208s

DILUPBiCGStab:  Solving for T, Initial residual = 0.00104702, Final residual = 7.21338e-08, No Iterations 2
Time = 0.00209s

DILUPBiCGStab:  Solving for T, Initial residual = 0.00104119, Final residual = 7.1799e-08, No Iterations 2
Time = 0.0021s

DILUPBiCGStab:  Solving for T, Initial residual = 0.00103543, Final residual = 7.14646e-08, No Iterations 2
Time = 0.00211s

DILUPBiCGStab:  Solving for T, Initial residual = 0.00102972, Final residual = 7.11264e-08, No Iterations 2
Time = 0.00212s

DILUPBiCGStab:  Solving for T, Initial residual = 0.00102407, Final residual = 7.07856e-08, No Iterations 2
Time = 0.00213s

DILUPBiCGStab:  Solving for T, Initial residual = 0.00101848, Final residual = 7.04424e-08, No Iterations 2
Time = 0.00214s

DILUPBiCGStab:  Solving for T, Initial residual = 0.00101295, Final residual = 7.0095e-08, No Iterations 2
Time = 0.00215s

DILUPBiCGStab:  Solving for T, Initial residual = 0.00100747, Final residual = 6.97435e-08, No Iterations 2
Time = 0.00216s

DILUPBiCGStab:  Solving for T, Initial residual = 0.00100205, Final residual = 6.93873e-08, No Iterations 2
Time = 0.00217s

DILUPBiCGStab:  Solving for T, Initial residual = 0.000996685, Final residual = 6.90266e-08, No Iterations 2
Time = 0.00218s

DILUPBiCGStab:  Solving for T, Initial residual = 0.000991372, Final residual = 6.86619e-08, No Iterations 2
Time = 0.00219s

DILUPBiCGStab:  Solving for T, Initial residual = 0.000986116, Final residual = 6.82944e-08, No Iterations 2
Time = 0.0022s

DILUPBiCGStab:  Solving for T, Initial residual = 0.000980917, Final residual = 6.79239e-08, No Iterations 2
Time = 0.00221s

DILUPBiCGStab:  Solving for T, Initial residual = 0.000975768, Final residual = 6.755e-08, No Iterations 2
Time = 0.00222s

DILUPBiCGStab:  Solving for T, Initial residual = 0.000970668, Final residual = 6.71739e-08, No Iterations 2
Time = 0.00223s

DILUPBiCGStab:  Solving for T, Initial residual = 0.000965616, Final residual = 6.67949e-08, No Iterations 2
Time = 0.00224s

DILUPBiCGStab:  Solving for T, Initial residual = 0.000960617, Final residual = 6.64135e-08, No Iterations 2
Time = 0.00225s

DILUPBiCGStab:  Solving for T, Initial residual = 0.000955671, Final residual = 6.60299e-08, No Iterations 2
Time = 0.00226s

DILUPBiCGStab:  Solving for T, Initial residual = 0.000950778, Final residual = 6.56444e-08, No Iterations 2
Time = 0.00227s

DILUPBiCGStab:  Solving for T, Initial residual = 0.000945933, Final residual = 6.52574e-08, No Iterations 2
Time = 0.00228s

DILUPBiCGStab:  Solving for T, Initial residual = 0.000941132, Final residual = 6.48689e-08, No Iterations 2
Time = 0.00229s

DILUPBiCGStab:  Solving for T, Initial residual = 0.000936375, Final residual = 6.44787e-08, No Iterations 2
Time = 0.0023s

DILUPBiCGStab:  Solving for T, Initial residual = 0.000931667, Final residual = 6.40874e-08, No Iterations 2
Time = 0.00231s

DILUPBiCGStab:  Solving for T, Initial residual = 0.000927009, Final residual = 6.3695e-08, No Iterations 2
Time = 0.00232s

DILUPBiCGStab:  Solving for T, Initial residual = 0.0009224, Final residual = 6.33018e-08, No Iterations 2
Time = 0.00233s

DILUPBiCGStab:  Solving for T, Initial residual = 0.000917836, Final residual = 6.2908e-08, No Iterations 2
Time = 0.00234s

DILUPBiCGStab:  Solving for T, Initial residual = 0.000913313, Final residual = 6.25134e-08, No Iterations 2
Time = 0.00235s

DILUPBiCGStab:  Solving for T, Initial residual = 0.000908831, Final residual = 6.2118e-08, No Iterations 2
Time = 0.00236s

DILUPBiCGStab:  Solving for T, Initial residual = 0.000904394, Final residual = 6.17223e-08, No Iterations 2
Time = 0.00237s

DILUPBiCGStab:  Solving for T, Initial residual = 0.000900003, Final residual = 6.13265e-08, No Iterations 2
Time = 0.00238s

DILUPBiCGStab:  Solving for T, Initial residual = 0.000895657, Final residual = 6.09307e-08, No Iterations 2
Time = 0.00239s

DILUPBiCGStab:  Solving for T, Initial residual = 0.000891355, Final residual = 6.0535e-08, No Iterations 2
Time = 0.0024s

DILUPBiCGStab:  Solving for T, Initial residual = 0.000887091, Final residual = 6.01392e-08, No Iterations 2
Time = 0.00241s

DILUPBiCGStab:  Solving for T, Initial residual = 0.000882863, Final residual = 5.97435e-08, No Iterations 2
Time = 0.00242s

DILUPBiCGStab:  Solving for T, Initial residual = 0.000878677, Final residual = 5.93485e-08, No Iterations 2
Time = 0.00243s

DILUPBiCGStab:  Solving for T, Initial residual = 0.000874533, Final residual = 5.89541e-08, No Iterations 2
Time = 0.00244s

DILUPBiCGStab:  Solving for T, Initial residual = 0.000870432, Final residual = 5.85605e-08, No Iterations 2
Time = 0.00245s

DILUPBiCGStab:  Solving for T, Initial residual = 0.000866374, Final residual = 5.81679e-08, No Iterations 2
Time = 0.00246s

DILUPBiCGStab:  Solving for T, Initial residual = 0.000862351, Final residual = 5.77759e-08, No Iterations 2
Time = 0.00247s

DILUPBiCGStab:  Solving for T, Initial residual = 0.000858361, Final residual = 5.73845e-08, No Iterations 2
Time = 0.00248s

DILUPBiCGStab:  Solving for T, Initial residual = 0.000854409, Final residual = 5.69942e-08, No Iterations 2
Time = 0.00249s

DILUPBiCGStab:  Solving for T, Initial residual = 0.000850496, Final residual = 5.66052e-08, No Iterations 2
Time = 0.0025s

DILUPBiCGStab:  Solving for T, Initial residual = 0.000846622, Final residual = 5.62176e-08, No Iterations 2
Time = 0.00251s

DILUPBiCGStab:  Solving for T, Initial residual = 0.000842788, Final residual = 5.58316e-08, No Iterations 2
Time = 0.00252s

DILUPBiCGStab:  Solving for T, Initial residual = 0.00083899, Final residual = 5.54472e-08, No Iterations 2
Time = 0.00253s

DILUPBiCGStab:  Solving for T, Initial residual = 0.000835223, Final residual = 5.50645e-08, No Iterations 2
Time = 0.00254s

DILUPBiCGStab:  Solving for T, Initial residual = 0.000831489, Final residual = 5.46833e-08, No Iterations 2
Time = 0.00255s

DILUPBiCGStab:  Solving for T, Initial residual = 0.000827791, Final residual = 5.43039e-08, No Iterations 2
Time = 0.00256s

DILUPBiCGStab:  Solving for T, Initial residual = 0.000824129, Final residual = 5.39269e-08, No Iterations 2
Time = 0.00257s

DILUPBiCGStab:  Solving for T, Initial residual = 0.000820505, Final residual = 5.35519e-08, No Iterations 2
Time = 0.00258s

DILUPBiCGStab:  Solving for T, Initial residual = 0.000816915, Final residual = 5.31788e-08, No Iterations 2
Time = 0.00259s

DILUPBiCGStab:  Solving for T, Initial residual = 0.000813356, Final residual = 5.28075e-08, No Iterations 2
Time = 0.0026s

DILUPBiCGStab:  Solving for T, Initial residual = 0.000809826, Final residual = 5.24381e-08, No Iterations 2
Time = 0.00261s

DILUPBiCGStab:  Solving for T, Initial residual = 0.000806328, Final residual = 9.96726e-07, No Iterations 1
Time = 0.00262s

DILUPBiCGStab:  Solving for T, Initial residual = 0.000802867, Final residual = 9.91326e-07, No Iterations 1
Time = 0.00263s

DILUPBiCGStab:  Solving for T, Initial residual = 0.000799441, Final residual = 9.85719e-07, No Iterations 1
Time = 0.00264s

DILUPBiCGStab:  Solving for T, Initial residual = 0.00079605, Final residual = 9.80041e-07, No Iterations 1
Time = 0.00265s

DILUPBiCGStab:  Solving for T, Initial residual = 0.000792687, Final residual = 9.7434e-07, No Iterations 1
Time = 0.00266s

DILUPBiCGStab:  Solving for T, Initial residual = 0.000789352, Final residual = 9.68639e-07, No Iterations 1
Time = 0.00267s

DILUPBiCGStab:  Solving for T, Initial residual = 0.000786045, Final residual = 9.62947e-07, No Iterations 1
Time = 0.00268s

DILUPBiCGStab:  Solving for T, Initial residual = 0.000782768, Final residual = 9.57274e-07, No Iterations 1
Time = 0.00269s

DILUPBiCGStab:  Solving for T, Initial residual = 0.000779523, Final residual = 9.51624e-07, No Iterations 1
Time = 0.0027s

DILUPBiCGStab:  Solving for T, Initial residual = 0.000776309, Final residual = 9.45999e-07, No Iterations 1
Time = 0.00271s

DILUPBiCGStab:  Solving for T, Initial residual = 0.000773124, Final residual = 9.40402e-07, No Iterations 1
Time = 0.00272s

DILUPBiCGStab:  Solving for T, Initial residual = 0.000769966, Final residual = 9.34832e-07, No Iterations 1
Time = 0.00273s

DILUPBiCGStab:  Solving for T, Initial residual = 0.000766833, Final residual = 9.29283e-07, No Iterations 1
Time = 0.00274s

DILUPBiCGStab:  Solving for T, Initial residual = 0.000763726, Final residual = 9.23759e-07, No Iterations 1
Time = 0.00275s

DILUPBiCGStab:  Solving for T, Initial residual = 0.000760649, Final residual = 9.18264e-07, No Iterations 1
Time = 0.00276s

DILUPBiCGStab:  Solving for T, Initial residual = 0.0007576, Final residual = 9.12798e-07, No Iterations 1
Time = 0.00277s

DILUPBiCGStab:  Solving for T, Initial residual = 0.000754581, Final residual = 9.07362e-07, No Iterations 1
Time = 0.00278s

DILUPBiCGStab:  Solving for T, Initial residual = 0.000751588, Final residual = 9.01954e-07, No Iterations 1
Time = 0.00279s

DILUPBiCGStab:  Solving for T, Initial residual = 0.000748618, Final residual = 8.96575e-07, No Iterations 1
Time = 0.0028s

DILUPBiCGStab:  Solving for T, Initial residual = 0.000745672, Final residual = 8.91226e-07, No Iterations 1
Time = 0.00281s

DILUPBiCGStab:  Solving for T, Initial residual = 0.000742752, Final residual = 8.85907e-07, No Iterations 1
Time = 0.00282s

DILUPBiCGStab:  Solving for T, Initial residual = 0.000739859, Final residual = 8.8062e-07, No Iterations 1
Time = 0.00283s

DILUPBiCGStab:  Solving for T, Initial residual = 0.000736992, Final residual = 8.75368e-07, No Iterations 1
Time = 0.00284s

DILUPBiCGStab:  Solving for T, Initial residual = 0.000734153, Final residual = 8.70152e-07, No Iterations 1
Time = 0.00285s

DILUPBiCGStab:  Solving for T, Initial residual = 0.000731335, Final residual = 8.64966e-07, No Iterations 1
Time = 0.00286s

DILUPBiCGStab:  Solving for T, Initial residual = 0.000728539, Final residual = 8.59812e-07, No Iterations 1
Time = 0.00287s

DILUPBiCGStab:  Solving for T, Initial residual = 0.000725766, Final residual = 8.54692e-07, No Iterations 1
Time = 0.00288s

DILUPBiCGStab:  Solving for T, Initial residual = 0.000723017, Final residual = 8.49603e-07, No Iterations 1
Time = 0.00289s

DILUPBiCGStab:  Solving for T, Initial residual = 0.000720294, Final residual = 8.44547e-07, No Iterations 1
Time = 0.0029s

DILUPBiCGStab:  Solving for T, Initial residual = 0.000717595, Final residual = 8.39523e-07, No Iterations 1
Time = 0.00291s

DILUPBiCGStab:  Solving for T, Initial residual = 0.000714921, Final residual = 8.34531e-07, No Iterations 1
Time = 0.00292s

DILUPBiCGStab:  Solving for T, Initial residual = 0.000712267, Final residual = 8.29572e-07, No Iterations 1
Time = 0.00293s

DILUPBiCGStab:  Solving for T, Initial residual = 0.000709632, Final residual = 8.24647e-07, No Iterations 1
Time = 0.00294s

DILUPBiCGStab:  Solving for T, Initial residual = 0.000707019, Final residual = 8.19755e-07, No Iterations 1
Time = 0.00295s

DILUPBiCGStab:  Solving for T, Initial residual = 0.000704429, Final residual = 8.14896e-07, No Iterations 1
Time = 0.00296s

DILUPBiCGStab:  Solving for T, Initial residual = 0.000701862, Final residual = 8.10071e-07, No Iterations 1
Time = 0.00297s

DILUPBiCGStab:  Solving for T, Initial residual = 0.000699318, Final residual = 8.05277e-07, No Iterations 1
Time = 0.00298s

DILUPBiCGStab:  Solving for T, Initial residual = 0.000696795, Final residual = 8.00516e-07, No Iterations 1
Time = 0.00299s

DILUPBiCGStab:  Solving for T, Initial residual = 0.000694292, Final residual = 7.95787e-07, No Iterations 1
Time = 0.003s

DILUPBiCGStab:  Solving for T, Initial residual = 0.000691807, Final residual = 7.9109e-07, No Iterations 1
Time = 0.00301s

DILUPBiCGStab:  Solving for T, Initial residual = 0.000689342, Final residual = 7.86424e-07, No Iterations 1
Time = 0.00302s

DILUPBiCGStab:  Solving for T, Initial residual = 0.000686898, Final residual = 7.81788e-07, No Iterations 1
Time = 0.00303s

DILUPBiCGStab:  Solving for T, Initial residual = 0.000684475, Final residual = 7.77184e-07, No Iterations 1
Time = 0.00304s

DILUPBiCGStab:  Solving for T, Initial residual = 0.000682074, Final residual = 7.72612e-07, No Iterations 1
Time = 0.00305s

DILUPBiCGStab:  Solving for T, Initial residual = 0.000679692, Final residual = 7.68069e-07, No Iterations 1
Time = 0.00306s

DILUPBiCGStab:  Solving for T, Initial residual = 0.000677328, Final residual = 7.63562e-07, No Iterations 1
Time = 0.00307s

DILUPBiCGStab:  Solving for T, Initial residual = 0.000674981, Final residual = 7.59083e-07, No Iterations 1
Time = 0.00308s

DILUPBiCGStab:  Solving for T, Initial residual = 0.000672652, Final residual = 7.54634e-07, No Iterations 1
Time = 0.00309s

DILUPBiCGStab:  Solving for T, Initial residual = 0.000670344, Final residual = 7.50216e-07, No Iterations 1
Time = 0.0031s

DILUPBiCGStab:  Solving for T, Initial residual = 0.000668055, Final residual = 7.45829e-07, No Iterations 1
Time = 0.00311s

DILUPBiCGStab:  Solving for T, Initial residual = 0.000665786, Final residual = 7.41472e-07, No Iterations 1
Time = 0.00312s

DILUPBiCGStab:  Solving for T, Initial residual = 0.000663535, Final residual = 7.37151e-07, No Iterations 1
Time = 0.00313s

DILUPBiCGStab:  Solving for T, Initial residual = 0.000661299, Final residual = 7.32857e-07, No Iterations 1
Time = 0.00314s

DILUPBiCGStab:  Solving for T, Initial residual = 0.00065908, Final residual = 7.28589e-07, No Iterations 1
Time = 0.00315s

DILUPBiCGStab:  Solving for T, Initial residual = 0.000656877, Final residual = 7.24348e-07, No Iterations 1
Time = 0.00316s

DILUPBiCGStab:  Solving for T, Initial residual = 0.000654693, Final residual = 7.20137e-07, No Iterations 1
Time = 0.00317s

DILUPBiCGStab:  Solving for T, Initial residual = 0.000652527, Final residual = 7.15954e-07, No Iterations 1
Time = 0.00318s

DILUPBiCGStab:  Solving for T, Initial residual = 0.00065038, Final residual = 7.11805e-07, No Iterations 1
Time = 0.00319s

DILUPBiCGStab:  Solving for T, Initial residual = 0.000648249, Final residual = 7.07686e-07, No Iterations 1
Time = 0.0032s

DILUPBiCGStab:  Solving for T, Initial residual = 0.000646133, Final residual = 7.03591e-07, No Iterations 1
Time = 0.00321s

DILUPBiCGStab:  Solving for T, Initial residual = 0.000644031, Final residual = 6.99522e-07, No Iterations 1
Time = 0.00322s

DILUPBiCGStab:  Solving for T, Initial residual = 0.000641946, Final residual = 6.95483e-07, No Iterations 1
Time = 0.00323s

DILUPBiCGStab:  Solving for T, Initial residual = 0.000639878, Final residual = 6.91474e-07, No Iterations 1
Time = 0.00324s

DILUPBiCGStab:  Solving for T, Initial residual = 0.000637827, Final residual = 6.87496e-07, No Iterations 1
Time = 0.00325s

DILUPBiCGStab:  Solving for T, Initial residual = 0.000635793, Final residual = 6.83551e-07, No Iterations 1
Time = 0.00326s

DILUPBiCGStab:  Solving for T, Initial residual = 0.000633774, Final residual = 6.79634e-07, No Iterations 1
Time = 0.00327s

DILUPBiCGStab:  Solving for T, Initial residual = 0.000631769, Final residual = 6.75741e-07, No Iterations 1
Time = 0.00328s

DILUPBiCGStab:  Solving for T, Initial residual = 0.000629778, Final residual = 6.7187e-07, No Iterations 1
Time = 0.00329s

DILUPBiCGStab:  Solving for T, Initial residual = 0.000627801, Final residual = 6.68027e-07, No Iterations 1
Time = 0.0033s

DILUPBiCGStab:  Solving for T, Initial residual = 0.000625841, Final residual = 6.64212e-07, No Iterations 1
Time = 0.00331s

DILUPBiCGStab:  Solving for T, Initial residual = 0.000623896, Final residual = 6.60428e-07, No Iterations 1
Time = 0.00332s

DILUPBiCGStab:  Solving for T, Initial residual = 0.000621967, Final residual = 6.5667e-07, No Iterations 1
Time = 0.00333s

DILUPBiCGStab:  Solving for T, Initial residual = 0.000620052, Final residual = 6.52936e-07, No Iterations 1
Time = 0.00334s

DILUPBiCGStab:  Solving for T, Initial residual = 0.00061815, Final residual = 6.49225e-07, No Iterations 1
Time = 0.00335s

DILUPBiCGStab:  Solving for T, Initial residual = 0.000616261, Final residual = 6.45536e-07, No Iterations 1
Time = 0.00336s

DILUPBiCGStab:  Solving for T, Initial residual = 0.000614385, Final residual = 6.41874e-07, No Iterations 1
Time = 0.00337s

DILUPBiCGStab:  Solving for T, Initial residual = 0.000612524, Final residual = 6.38246e-07, No Iterations 1
Time = 0.00338s

DILUPBiCGStab:  Solving for T, Initial residual = 0.000610678, Final residual = 6.34642e-07, No Iterations 1
Time = 0.00339s

DILUPBiCGStab:  Solving for T, Initial residual = 0.000608846, Final residual = 6.31063e-07, No Iterations 1
Time = 0.0034s

DILUPBiCGStab:  Solving for T, Initial residual = 0.000607028, Final residual = 6.27506e-07, No Iterations 1
Time = 0.00341s

DILUPBiCGStab:  Solving for T, Initial residual = 0.000605223, Final residual = 6.23971e-07, No Iterations 1
Time = 0.00342s

DILUPBiCGStab:  Solving for T, Initial residual = 0.000603428, Final residual = 6.20457e-07, No Iterations 1
Time = 0.00343s

DILUPBiCGStab:  Solving for T, Initial residual = 0.000601647, Final residual = 6.16974e-07, No Iterations 1
Time = 0.00344s

DILUPBiCGStab:  Solving for T, Initial residual = 0.00059988, Final residual = 6.13515e-07, No Iterations 1
Time = 0.00345s

DILUPBiCGStab:  Solving for T, Initial residual = 0.000598126, Final residual = 6.1008e-07, No Iterations 1
Time = 0.00346s

DILUPBiCGStab:  Solving for T, Initial residual = 0.000596386, Final residual = 6.06668e-07, No Iterations 1
Time = 0.00347s

DILUPBiCGStab:  Solving for T, Initial residual = 0.000594659, Final residual = 6.03278e-07, No Iterations 1
Time = 0.00348s

DILUPBiCGStab:  Solving for T, Initial residual = 0.000592943, Final residual = 5.99908e-07, No Iterations 1
Time = 0.00349s

DILUPBiCGStab:  Solving for T, Initial residual = 0.000591237, Final residual = 5.96562e-07, No Iterations 1
Time = 0.0035s

DILUPBiCGStab:  Solving for T, Initial residual = 0.000589543, Final residual = 5.93239e-07, No Iterations 1
Time = 0.00351s

DILUPBiCGStab:  Solving for T, Initial residual = 0.000587861, Final residual = 5.89941e-07, No Iterations 1
Time = 0.00352s

DILUPBiCGStab:  Solving for T, Initial residual = 0.000586192, Final residual = 5.86669e-07, No Iterations 1
Time = 0.00353s

DILUPBiCGStab:  Solving for T, Initial residual = 0.000584536, Final residual = 5.83419e-07, No Iterations 1
Time = 0.00354s

DILUPBiCGStab:  Solving for T, Initial residual = 0.000582892, Final residual = 5.8019e-07, No Iterations 1
Time = 0.00355s

DILUPBiCGStab:  Solving for T, Initial residual = 0.000581259, Final residual = 5.76986e-07, No Iterations 1
Time = 0.00356s

DILUPBiCGStab:  Solving for T, Initial residual = 0.000579636, Final residual = 5.73802e-07, No Iterations 1
Time = 0.00357s

DILUPBiCGStab:  Solving for T, Initial residual = 0.000578024, Final residual = 5.70637e-07, No Iterations 1
Time = 0.00358s

DILUPBiCGStab:  Solving for T, Initial residual = 0.000576423, Final residual = 5.67492e-07, No Iterations 1
Time = 0.00359s

DILUPBiCGStab:  Solving for T, Initial residual = 0.000574834, Final residual = 5.64369e-07, No Iterations 1
Time = 0.0036s

DILUPBiCGStab:  Solving for T, Initial residual = 0.000573258, Final residual = 5.61268e-07, No Iterations 1
Time = 0.00361s

DILUPBiCGStab:  Solving for T, Initial residual = 0.000571693, Final residual = 5.58191e-07, No Iterations 1
Time = 0.00362s

DILUPBiCGStab:  Solving for T, Initial residual = 0.000570138, Final residual = 5.55135e-07, No Iterations 1
Time = 0.00363s

DILUPBiCGStab:  Solving for T, Initial residual = 0.000568593, Final residual = 5.52098e-07, No Iterations 1
Time = 0.00364s

DILUPBiCGStab:  Solving for T, Initial residual = 0.000567057, Final residual = 5.49078e-07, No Iterations 1
Time = 0.00365s

DILUPBiCGStab:  Solving for T, Initial residual = 0.000565532, Final residual = 5.46077e-07, No Iterations 1
Time = 0.00366s

DILUPBiCGStab:  Solving for T, Initial residual = 0.000564017, Final residual = 5.43098e-07, No Iterations 1
Time = 0.00367s

DILUPBiCGStab:  Solving for T, Initial residual = 0.000562514, Final residual = 5.40141e-07, No Iterations 1
Time = 0.00368s

DILUPBiCGStab:  Solving for T, Initial residual = 0.000561021, Final residual = 5.37208e-07, No Iterations 1
Time = 0.00369s

DILUPBiCGStab:  Solving for T, Initial residual = 0.000559538, Final residual = 5.34294e-07, No Iterations 1
Time = 0.0037s

DILUPBiCGStab:  Solving for T, Initial residual = 0.000558064, Final residual = 5.31397e-07, No Iterations 1
Time = 0.00371s

DILUPBiCGStab:  Solving for T, Initial residual = 0.000556599, Final residual = 5.2852e-07, No Iterations 1
Time = 0.00372s

DILUPBiCGStab:  Solving for T, Initial residual = 0.000555143, Final residual = 5.25661e-07, No Iterations 1
Time = 0.00373s

DILUPBiCGStab:  Solving for T, Initial residual = 0.000553698, Final residual = 5.22823e-07, No Iterations 1
Time = 0.00374s

DILUPBiCGStab:  Solving for T, Initial residual = 0.000552263, Final residual = 5.20006e-07, No Iterations 1
Time = 0.00375s

DILUPBiCGStab:  Solving for T, Initial residual = 0.000550839, Final residual = 5.17207e-07, No Iterations 1
Time = 0.00376s

DILUPBiCGStab:  Solving for T, Initial residual = 0.000549424, Final residual = 5.14426e-07, No Iterations 1
Time = 0.00377s

DILUPBiCGStab:  Solving for T, Initial residual = 0.000548017, Final residual = 5.11663e-07, No Iterations 1
Time = 0.00378s

DILUPBiCGStab:  Solving for T, Initial residual = 0.000546619, Final residual = 5.08916e-07, No Iterations 1
Time = 0.00379s

DILUPBiCGStab:  Solving for T, Initial residual = 0.00054523, Final residual = 5.06188e-07, No Iterations 1
Time = 0.0038s

DILUPBiCGStab:  Solving for T, Initial residual = 0.000543851, Final residual = 5.0348e-07, No Iterations 1
Time = 0.00381s

DILUPBiCGStab:  Solving for T, Initial residual = 0.00054248, Final residual = 5.00791e-07, No Iterations 1
Time = 0.00382s

DILUPBiCGStab:  Solving for T, Initial residual = 0.000541119, Final residual = 4.98121e-07, No Iterations 1
Time = 0.00383s

DILUPBiCGStab:  Solving for T, Initial residual = 0.000539768, Final residual = 4.95468e-07, No Iterations 1
Time = 0.00384s

DILUPBiCGStab:  Solving for T, Initial residual = 0.000538425, Final residual = 4.92832e-07, No Iterations 1
Time = 0.00385s

DILUPBiCGStab:  Solving for T, Initial residual = 0.00053709, Final residual = 4.90216e-07, No Iterations 1
Time = 0.00386s

DILUPBiCGStab:  Solving for T, Initial residual = 0.000535763, Final residual = 4.87619e-07, No Iterations 1
Time = 0.00387s

DILUPBiCGStab:  Solving for T, Initial residual = 0.000534445, Final residual = 4.85038e-07, No Iterations 1
Time = 0.00388s

DILUPBiCGStab:  Solving for T, Initial residual = 0.000533135, Final residual = 4.82472e-07, No Iterations 1
Time = 0.00389s

DILUPBiCGStab:  Solving for T, Initial residual = 0.000531835, Final residual = 4.79922e-07, No Iterations 1
Time = 0.0039s

DILUPBiCGStab:  Solving for T, Initial residual = 0.000530543, Final residual = 4.77389e-07, No Iterations 1
Time = 0.00391s

DILUPBiCGStab:  Solving for T, Initial residual = 0.000529259, Final residual = 4.74875e-07, No Iterations 1
Time = 0.00392s

DILUPBiCGStab:  Solving for T, Initial residual = 0.000527983, Final residual = 4.72377e-07, No Iterations 1
Time = 0.00393s

DILUPBiCGStab:  Solving for T, Initial residual = 0.000526713, Final residual = 4.69894e-07, No Iterations 1
Time = 0.00394s

DILUPBiCGStab:  Solving for T, Initial residual = 0.000525452, Final residual = 4.67426e-07, No Iterations 1
Time = 0.00395s

DILUPBiCGStab:  Solving for T, Initial residual = 0.0005242, Final residual = 4.64973e-07, No Iterations 1
Time = 0.00396s

DILUPBiCGStab:  Solving for T, Initial residual = 0.000522956, Final residual = 4.62535e-07, No Iterations 1
Time = 0.00397s

DILUPBiCGStab:  Solving for T, Initial residual = 0.000521719, Final residual = 4.60119e-07, No Iterations 1
Time = 0.00398s

DILUPBiCGStab:  Solving for T, Initial residual = 0.000520492, Final residual = 4.5772e-07, No Iterations 1
Time = 0.00399s

DILUPBiCGStab:  Solving for T, Initial residual = 0.000519271, Final residual = 4.55337e-07, No Iterations 1
Time = 0.004s

DILUPBiCGStab:  Solving for T, Initial residual = 0.000518057, Final residual = 4.52968e-07, No Iterations 1
Time = 0.00401s

DILUPBiCGStab:  Solving for T, Initial residual = 0.00051685, Final residual = 4.50614e-07, No Iterations 1
Time = 0.00402s

DILUPBiCGStab:  Solving for T, Initial residual = 0.00051565, Final residual = 4.48275e-07, No Iterations 1
Time = 0.00403s

DILUPBiCGStab:  Solving for T, Initial residual = 0.000514459, Final residual = 4.45955e-07, No Iterations 1
Time = 0.00404s

DILUPBiCGStab:  Solving for T, Initial residual = 0.000513275, Final residual = 4.4365e-07, No Iterations 1
Time = 0.00405s

DILUPBiCGStab:  Solving for T, Initial residual = 0.000512099, Final residual = 4.41358e-07, No Iterations 1
Time = 0.00406s

DILUPBiCGStab:  Solving for T, Initial residual = 0.00051093, Final residual = 4.3908e-07, No Iterations 1
Time = 0.00407s

DILUPBiCGStab:  Solving for T, Initial residual = 0.000509767, Final residual = 4.36814e-07, No Iterations 1
Time = 0.00408s

DILUPBiCGStab:  Solving for T, Initial residual = 0.000508611, Final residual = 4.34562e-07, No Iterations 1
Time = 0.00409s

DILUPBiCGStab:  Solving for T, Initial residual = 0.000507462, Final residual = 4.32328e-07, No Iterations 1
Time = 0.0041s

DILUPBiCGStab:  Solving for T, Initial residual = 0.00050632, Final residual = 4.30108e-07, No Iterations 1
Time = 0.00411s

DILUPBiCGStab:  Solving for T, Initial residual = 0.000505186, Final residual = 4.27902e-07, No Iterations 1
Time = 0.00412s

DILUPBiCGStab:  Solving for T, Initial residual = 0.000504059, Final residual = 4.2571e-07, No Iterations 1
Time = 0.00413s

DILUPBiCGStab:  Solving for T, Initial residual = 0.00050294, Final residual = 4.23532e-07, No Iterations 1
Time = 0.00414s

DILUPBiCGStab:  Solving for T, Initial residual = 0.000501826, Final residual = 4.21368e-07, No Iterations 1
Time = 0.00415s

DILUPBiCGStab:  Solving for T, Initial residual = 0.000500718, Final residual = 4.19221e-07, No Iterations 1
Time = 0.00416s

DILUPBiCGStab:  Solving for T, Initial residual = 0.000499616, Final residual = 4.17087e-07, No Iterations 1
Time = 0.00417s

DILUPBiCGStab:  Solving for T, Initial residual = 0.000498522, Final residual = 4.14967e-07, No Iterations 1
Time = 0.00418s

DILUPBiCGStab:  Solving for T, Initial residual = 0.000497434, Final residual = 4.1286e-07, No Iterations 1
Time = 0.00419s

DILUPBiCGStab:  Solving for T, Initial residual = 0.000496353, Final residual = 4.10765e-07, No Iterations 1
Time = 0.0042s

DILUPBiCGStab:  Solving for T, Initial residual = 0.000495279, Final residual = 4.08684e-07, No Iterations 1
Time = 0.00421s

DILUPBiCGStab:  Solving for T, Initial residual = 0.000494212, Final residual = 4.06617e-07, No Iterations 1
Time = 0.00422s

DILUPBiCGStab:  Solving for T, Initial residual = 0.000493149, Final residual = 4.04563e-07, No Iterations 1
Time = 0.00423s

DILUPBiCGStab:  Solving for T, Initial residual = 0.000492093, Final residual = 4.0252e-07, No Iterations 1
Time = 0.00424s

DILUPBiCGStab:  Solving for T, Initial residual = 0.000491042, Final residual = 4.0049e-07, No Iterations 1
Time = 0.00425s

DILUPBiCGStab:  Solving for T, Initial residual = 0.000489999, Final residual = 3.98473e-07, No Iterations 1
Time = 0.00426s

DILUPBiCGStab:  Solving for T, Initial residual = 0.000488961, Final residual = 3.9647e-07, No Iterations 1
Time = 0.00427s

DILUPBiCGStab:  Solving for T, Initial residual = 0.000487931, Final residual = 3.94481e-07, No Iterations 1
Time = 0.00428s

DILUPBiCGStab:  Solving for T, Initial residual = 0.000486907, Final residual = 3.92506e-07, No Iterations 1
Time = 0.00429s

DILUPBiCGStab:  Solving for T, Initial residual = 0.000485888, Final residual = 3.90544e-07, No Iterations 1
Time = 0.0043s

DILUPBiCGStab:  Solving for T, Initial residual = 0.000484874, Final residual = 3.88592e-07, No Iterations 1
Time = 0.00431s

DILUPBiCGStab:  Solving for T, Initial residual = 0.000483865, Final residual = 3.86653e-07, No Iterations 1
Time = 0.00432s

DILUPBiCGStab:  Solving for T, Initial residual = 0.000482863, Final residual = 3.84726e-07, No Iterations 1
Time = 0.00433s

DILUPBiCGStab:  Solving for T, Initial residual = 0.000481867, Final residual = 3.82812e-07, No Iterations 1
Time = 0.00434s

DILUPBiCGStab:  Solving for T, Initial residual = 0.000480877, Final residual = 3.80912e-07, No Iterations 1
Time = 0.00435s

DILUPBiCGStab:  Solving for T, Initial residual = 0.000479892, Final residual = 3.79023e-07, No Iterations 1
Time = 0.00436s

DILUPBiCGStab:  Solving for T, Initial residual = 0.000478913, Final residual = 3.77145e-07, No Iterations 1
Time = 0.00437s

DILUPBiCGStab:  Solving for T, Initial residual = 0.000477939, Final residual = 3.75278e-07, No Iterations 1
Time = 0.00438s

DILUPBiCGStab:  Solving for T, Initial residual = 0.00047697, Final residual = 3.73421e-07, No Iterations 1
Time = 0.00439s

DILUPBiCGStab:  Solving for T, Initial residual = 0.000476006, Final residual = 3.71575e-07, No Iterations 1
Time = 0.0044s

DILUPBiCGStab:  Solving for T, Initial residual = 0.000475048, Final residual = 3.69745e-07, No Iterations 1
Time = 0.00441s

DILUPBiCGStab:  Solving for T, Initial residual = 0.000474096, Final residual = 3.67925e-07, No Iterations 1
Time = 0.00442s

DILUPBiCGStab:  Solving for T, Initial residual = 0.000473149, Final residual = 3.66116e-07, No Iterations 1
Time = 0.00443s

DILUPBiCGStab:  Solving for T, Initial residual = 0.000472209, Final residual = 3.64319e-07, No Iterations 1
Time = 0.00444s

DILUPBiCGStab:  Solving for T, Initial residual = 0.000471273, Final residual = 3.62533e-07, No Iterations 1
Time = 0.00445s

DILUPBiCGStab:  Solving for T, Initial residual = 0.000470341, Final residual = 3.60757e-07, No Iterations 1
Time = 0.00446s

DILUPBiCGStab:  Solving for T, Initial residual = 0.000469415, Final residual = 3.58993e-07, No Iterations 1
Time = 0.00447s

DILUPBiCGStab:  Solving for T, Initial residual = 0.000468494, Final residual = 3.57241e-07, No Iterations 1
Time = 0.00448s

DILUPBiCGStab:  Solving for T, Initial residual = 0.000467579, Final residual = 3.555e-07, No Iterations 1
Time = 0.00449s

DILUPBiCGStab:  Solving for T, Initial residual = 0.000466669, Final residual = 3.53769e-07, No Iterations 1
Time = 0.0045s

DILUPBiCGStab:  Solving for T, Initial residual = 0.000465764, Final residual = 3.52048e-07, No Iterations 1
Time = 0.00451s

DILUPBiCGStab:  Solving for T, Initial residual = 0.000464864, Final residual = 3.50337e-07, No Iterations 1
Time = 0.00452s

DILUPBiCGStab:  Solving for T, Initial residual = 0.000463969, Final residual = 3.48636e-07, No Iterations 1
Time = 0.00453s

DILUPBiCGStab:  Solving for T, Initial residual = 0.000463078, Final residual = 3.46947e-07, No Iterations 1
Time = 0.00454s

DILUPBiCGStab:  Solving for T, Initial residual = 0.000462191, Final residual = 3.45269e-07, No Iterations 1
Time = 0.00455s

DILUPBiCGStab:  Solving for T, Initial residual = 0.00046131, Final residual = 3.43601e-07, No Iterations 1
Time = 0.00456s

DILUPBiCGStab:  Solving for T, Initial residual = 0.000460434, Final residual = 3.41946e-07, No Iterations 1
Time = 0.00457s

DILUPBiCGStab:  Solving for T, Initial residual = 0.000459564, Final residual = 3.40299e-07, No Iterations 1
Time = 0.00458s

DILUPBiCGStab:  Solving for T, Initial residual = 0.000458698, Final residual = 3.38661e-07, No Iterations 1
Time = 0.00459s

DILUPBiCGStab:  Solving for T, Initial residual = 0.000457837, Final residual = 3.37035e-07, No Iterations 1
Time = 0.0046s

DILUPBiCGStab:  Solving for T, Initial residual = 0.000456979, Final residual = 3.35418e-07, No Iterations 1
Time = 0.00461s

DILUPBiCGStab:  Solving for T, Initial residual = 0.000456126, Final residual = 3.33811e-07, No Iterations 1
Time = 0.00462s

DILUPBiCGStab:  Solving for T, Initial residual = 0.000455278, Final residual = 3.32212e-07, No Iterations 1
Time = 0.00463s

DILUPBiCGStab:  Solving for T, Initial residual = 0.000454435, Final residual = 3.30625e-07, No Iterations 1
Time = 0.00464s

DILUPBiCGStab:  Solving for T, Initial residual = 0.000453597, Final residual = 3.29046e-07, No Iterations 1
Time = 0.00465s

DILUPBiCGStab:  Solving for T, Initial residual = 0.000452763, Final residual = 3.27478e-07, No Iterations 1
Time = 0.00466s

DILUPBiCGStab:  Solving for T, Initial residual = 0.000451934, Final residual = 3.2592e-07, No Iterations 1
Time = 0.00467s

DILUPBiCGStab:  Solving for T, Initial residual = 0.000451109, Final residual = 3.24372e-07, No Iterations 1
Time = 0.00468s

DILUPBiCGStab:  Solving for T, Initial residual = 0.000450288, Final residual = 3.22832e-07, No Iterations 1
Time = 0.00469s

DILUPBiCGStab:  Solving for T, Initial residual = 0.000449471, Final residual = 3.213e-07, No Iterations 1
Time = 0.0047s

DILUPBiCGStab:  Solving for T, Initial residual = 0.000448659, Final residual = 3.19779e-07, No Iterations 1
Time = 0.00471s

DILUPBiCGStab:  Solving for T, Initial residual = 0.000447851, Final residual = 3.18267e-07, No Iterations 1
Time = 0.00472s

DILUPBiCGStab:  Solving for T, Initial residual = 0.000447048, Final residual = 3.16768e-07, No Iterations 1
Time = 0.00473s

DILUPBiCGStab:  Solving for T, Initial residual = 0.00044625, Final residual = 3.15278e-07, No Iterations 1
Time = 0.00474s

DILUPBiCGStab:  Solving for T, Initial residual = 0.000445455, Final residual = 3.13795e-07, No Iterations 1
Time = 0.00475s

DILUPBiCGStab:  Solving for T, Initial residual = 0.000444664, Final residual = 3.12322e-07, No Iterations 1
Time = 0.00476s

DILUPBiCGStab:  Solving for T, Initial residual = 0.000443876, Final residual = 3.10856e-07, No Iterations 1
Time = 0.00477s

DILUPBiCGStab:  Solving for T, Initial residual = 0.000443093, Final residual = 3.09401e-07, No Iterations 1
Time = 0.00478s

DILUPBiCGStab:  Solving for T, Initial residual = 0.000442314, Final residual = 3.07958e-07, No Iterations 1
Time = 0.00479s

DILUPBiCGStab:  Solving for T, Initial residual = 0.000441539, Final residual = 3.06523e-07, No Iterations 1
Time = 0.0048s

DILUPBiCGStab:  Solving for T, Initial residual = 0.000440769, Final residual = 3.05095e-07, No Iterations 1
Time = 0.00481s

DILUPBiCGStab:  Solving for T, Initial residual = 0.000440003, Final residual = 3.03677e-07, No Iterations 1
Time = 0.00482s

DILUPBiCGStab:  Solving for T, Initial residual = 0.000439241, Final residual = 3.02266e-07, No Iterations 1
Time = 0.00483s

DILUPBiCGStab:  Solving for T, Initial residual = 0.000438482, Final residual = 3.00863e-07, No Iterations 1
Time = 0.00484s

DILUPBiCGStab:  Solving for T, Initial residual = 0.000437726, Final residual = 2.99468e-07, No Iterations 1
Time = 0.00485s

DILUPBiCGStab:  Solving for T, Initial residual = 0.000436975, Final residual = 2.98083e-07, No Iterations 1
Time = 0.00486s

DILUPBiCGStab:  Solving for T, Initial residual = 0.000436227, Final residual = 2.96707e-07, No Iterations 1
Time = 0.00487s

DILUPBiCGStab:  Solving for T, Initial residual = 0.000435484, Final residual = 2.9534e-07, No Iterations 1
Time = 0.00488s

DILUPBiCGStab:  Solving for T, Initial residual = 0.000434746, Final residual = 2.9398e-07, No Iterations 1
Time = 0.00489s

DILUPBiCGStab:  Solving for T, Initial residual = 0.00043401, Final residual = 2.92628e-07, No Iterations 1
Time = 0.0049s

DILUPBiCGStab:  Solving for T, Initial residual = 0.000433278, Final residual = 2.91282e-07, No Iterations 1
Time = 0.00491s

DILUPBiCGStab:  Solving for T, Initial residual = 0.00043255, Final residual = 2.89946e-07, No Iterations 1
Time = 0.00492s

DILUPBiCGStab:  Solving for T, Initial residual = 0.000431824, Final residual = 2.88619e-07, No Iterations 1
Time = 0.00493s

DILUPBiCGStab:  Solving for T, Initial residual = 0.000431104, Final residual = 2.87299e-07, No Iterations 1
Time = 0.00494s

DILUPBiCGStab:  Solving for T, Initial residual = 0.000430387, Final residual = 2.85988e-07, No Iterations 1
Time = 0.00495s

DILUPBiCGStab:  Solving for T, Initial residual = 0.000429675, Final residual = 2.84684e-07, No Iterations 1
Time = 0.00496s

DILUPBiCGStab:  Solving for T, Initial residual = 0.000428966, Final residual = 2.83388e-07, No Iterations 1
Time = 0.00497s

DILUPBiCGStab:  Solving for T, Initial residual = 0.00042826, Final residual = 2.821e-07, No Iterations 1
Time = 0.00498s

DILUPBiCGStab:  Solving for T, Initial residual = 0.000427556, Final residual = 2.80819e-07, No Iterations 1
Time = 0.00499s

DILUPBiCGStab:  Solving for T, Initial residual = 0.000426855, Final residual = 2.79546e-07, No Iterations 1
Time = 0.005s

DILUPBiCGStab:  Solving for T, Initial residual = 0.000426158, Final residual = 2.78278e-07, No Iterations 1
Time = 0.00501s

DILUPBiCGStab:  Solving for T, Initial residual = 0.000425466, Final residual = 2.77019e-07, No Iterations 1
Time = 0.00502s

DILUPBiCGStab:  Solving for T, Initial residual = 0.000424777, Final residual = 2.75768e-07, No Iterations 1
Time = 0.00503s

DILUPBiCGStab:  Solving for T, Initial residual = 0.000424092, Final residual = 2.74524e-07, No Iterations 1
Time = 0.00504s

DILUPBiCGStab:  Solving for T, Initial residual = 0.000423411, Final residual = 2.73289e-07, No Iterations 1
Time = 0.00505s

DILUPBiCGStab:  Solving for T, Initial residual = 0.000422733, Final residual = 2.72061e-07, No Iterations 1
Time = 0.00506s

DILUPBiCGStab:  Solving for T, Initial residual = 0.000422059, Final residual = 2.70841e-07, No Iterations 1
Time = 0.00507s

DILUPBiCGStab:  Solving for T, Initial residual = 0.000421387, Final residual = 2.69627e-07, No Iterations 1
Time = 0.00508s

DILUPBiCGStab:  Solving for T, Initial residual = 0.000420718, Final residual = 2.68419e-07, No Iterations 1
Time = 0.00509s

DILUPBiCGStab:  Solving for T, Initial residual = 0.000420053, Final residual = 2.67217e-07, No Iterations 1
Time = 0.0051s

DILUPBiCGStab:  Solving for T, Initial residual = 0.000419391, Final residual = 2.66022e-07, No Iterations 1
Time = 0.00511s

DILUPBiCGStab:  Solving for T, Initial residual = 0.000418733, Final residual = 2.64837e-07, No Iterations 1
Time = 0.00512s

DILUPBiCGStab:  Solving for T, Initial residual = 0.000418078, Final residual = 2.63658e-07, No Iterations 1
Time = 0.00513s

DILUPBiCGStab:  Solving for T, Initial residual = 0.000417425, Final residual = 2.62485e-07, No Iterations 1
Time = 0.00514s

DILUPBiCGStab:  Solving for T, Initial residual = 0.000416776, Final residual = 2.61318e-07, No Iterations 1
Time = 0.00515s

DILUPBiCGStab:  Solving for T, Initial residual = 0.00041613, Final residual = 2.60157e-07, No Iterations 1
Time = 0.00516s

DILUPBiCGStab:  Solving for T, Initial residual = 0.000415486, Final residual = 2.59003e-07, No Iterations 1
Time = 0.00517s

DILUPBiCGStab:  Solving for T, Initial residual = 0.000414847, Final residual = 2.57856e-07, No Iterations 1
Time = 0.00518s

DILUPBiCGStab:  Solving for T, Initial residual = 0.00041421, Final residual = 2.56717e-07, No Iterations 1
Time = 0.00519s

DILUPBiCGStab:  Solving for T, Initial residual = 0.000413577, Final residual = 2.55585e-07, No Iterations 1
Time = 0.0052s

DILUPBiCGStab:  Solving for T, Initial residual = 0.000412947, Final residual = 2.54459e-07, No Iterations 1
Time = 0.00521s

DILUPBiCGStab:  Solving for T, Initial residual = 0.000412319, Final residual = 2.53339e-07, No Iterations 1
Time = 0.00522s

DILUPBiCGStab:  Solving for T, Initial residual = 0.000411695, Final residual = 2.52225e-07, No Iterations 1
Time = 0.00523s

DILUPBiCGStab:  Solving for T, Initial residual = 0.000411073, Final residual = 2.51116e-07, No Iterations 1
Time = 0.00524s

DILUPBiCGStab:  Solving for T, Initial residual = 0.000410455, Final residual = 2.50015e-07, No Iterations 1
Time = 0.00525s

DILUPBiCGStab:  Solving for T, Initial residual = 0.000409839, Final residual = 2.4892e-07, No Iterations 1
Time = 0.00526s

DILUPBiCGStab:  Solving for T, Initial residual = 0.000409227, Final residual = 2.47833e-07, No Iterations 1
Time = 0.00527s

DILUPBiCGStab:  Solving for T, Initial residual = 0.000408618, Final residual = 2.46751e-07, No Iterations 1
Time = 0.00528s

DILUPBiCGStab:  Solving for T, Initial residual = 0.000408011, Final residual = 2.45675e-07, No Iterations 1
Time = 0.00529s

DILUPBiCGStab:  Solving for T, Initial residual = 0.000407407, Final residual = 2.44603e-07, No Iterations 1
Time = 0.0053s

DILUPBiCGStab:  Solving for T, Initial residual = 0.000406806, Final residual = 2.43537e-07, No Iterations 1
Time = 0.00531s

DILUPBiCGStab:  Solving for T, Initial residual = 0.000406208, Final residual = 2.42481e-07, No Iterations 1
Time = 0.00532s

DILUPBiCGStab:  Solving for T, Initial residual = 0.000405613, Final residual = 2.41431e-07, No Iterations 1
Time = 0.00533s

DILUPBiCGStab:  Solving for T, Initial residual = 0.00040502, Final residual = 2.40386e-07, No Iterations 1
Time = 0.00534s

DILUPBiCGStab:  Solving for T, Initial residual = 0.000404431, Final residual = 2.39346e-07, No Iterations 1
Time = 0.00535s

DILUPBiCGStab:  Solving for T, Initial residual = 0.000403844, Final residual = 2.38311e-07, No Iterations 1
Time = 0.00536s

DILUPBiCGStab:  Solving for T, Initial residual = 0.000403259, Final residual = 2.37281e-07, No Iterations 1
Time = 0.00537s

DILUPBiCGStab:  Solving for T, Initial residual = 0.000402678, Final residual = 2.36257e-07, No Iterations 1
Time = 0.00538s

DILUPBiCGStab:  Solving for T, Initial residual = 0.000402099, Final residual = 2.35241e-07, No Iterations 1
Time = 0.00539s

DILUPBiCGStab:  Solving for T, Initial residual = 0.000401523, Final residual = 2.34231e-07, No Iterations 1
Time = 0.0054s

DILUPBiCGStab:  Solving for T, Initial residual = 0.000400949, Final residual = 2.33226e-07, No Iterations 1
Time = 0.00541s

DILUPBiCGStab:  Solving for T, Initial residual = 0.000400379, Final residual = 2.32227e-07, No Iterations 1
Time = 0.00542s

DILUPBiCGStab:  Solving for T, Initial residual = 0.000399811, Final residual = 2.31234e-07, No Iterations 1
Time = 0.00543s

DILUPBiCGStab:  Solving for T, Initial residual = 0.000399246, Final residual = 2.30245e-07, No Iterations 1
Time = 0.00544s

DILUPBiCGStab:  Solving for T, Initial residual = 0.000398683, Final residual = 2.29262e-07, No Iterations 1
Time = 0.00545s

DILUPBiCGStab:  Solving for T, Initial residual = 0.000398123, Final residual = 2.28286e-07, No Iterations 1
Time = 0.00546s

DILUPBiCGStab:  Solving for T, Initial residual = 0.000397565, Final residual = 2.27315e-07, No Iterations 1
Time = 0.00547s

DILUPBiCGStab:  Solving for T, Initial residual = 0.00039701, Final residual = 2.2635e-07, No Iterations 1
Time = 0.00548s

DILUPBiCGStab:  Solving for T, Initial residual = 0.000396457, Final residual = 2.2539e-07, No Iterations 1
Time = 0.00549s

DILUPBiCGStab:  Solving for T, Initial residual = 0.000395908, Final residual = 2.24436e-07, No Iterations 1
Time = 0.0055s

DILUPBiCGStab:  Solving for T, Initial residual = 0.000395361, Final residual = 2.23486e-07, No Iterations 1
Time = 0.00551s

DILUPBiCGStab:  Solving for T, Initial residual = 0.000394816, Final residual = 2.22543e-07, No Iterations 1
Time = 0.00552s

DILUPBiCGStab:  Solving for T, Initial residual = 0.000394273, Final residual = 2.21606e-07, No Iterations 1
Time = 0.00553s

DILUPBiCGStab:  Solving for T, Initial residual = 0.000393734, Final residual = 2.20675e-07, No Iterations 1
Time = 0.00554s

DILUPBiCGStab:  Solving for T, Initial residual = 0.000393196, Final residual = 2.19748e-07, No Iterations 1
Time = 0.00555s

DILUPBiCGStab:  Solving for T, Initial residual = 0.000392661, Final residual = 2.18826e-07, No Iterations 1
Time = 0.00556s

DILUPBiCGStab:  Solving for T, Initial residual = 0.000392128, Final residual = 2.17911e-07, No Iterations 1
Time = 0.00557s

DILUPBiCGStab:  Solving for T, Initial residual = 0.000391598, Final residual = 2.17001e-07, No Iterations 1
Time = 0.00558s

DILUPBiCGStab:  Solving for T, Initial residual = 0.000391071, Final residual = 2.16099e-07, No Iterations 1
Time = 0.00559s

DILUPBiCGStab:  Solving for T, Initial residual = 0.000390545, Final residual = 2.15201e-07, No Iterations 1
Time = 0.0056s

DILUPBiCGStab:  Solving for T, Initial residual = 0.000390022, Final residual = 2.14309e-07, No Iterations 1
Time = 0.00561s

DILUPBiCGStab:  Solving for T, Initial residual = 0.000389501, Final residual = 2.13422e-07, No Iterations 1
Time = 0.00562s

DILUPBiCGStab:  Solving for T, Initial residual = 0.000388982, Final residual = 2.1254e-07, No Iterations 1
Time = 0.00563s

DILUPBiCGStab:  Solving for T, Initial residual = 0.000388465, Final residual = 2.11665e-07, No Iterations 1
Time = 0.00564s

DILUPBiCGStab:  Solving for T, Initial residual = 0.000387952, Final residual = 2.10797e-07, No Iterations 1
Time = 0.00565s

DILUPBiCGStab:  Solving for T, Initial residual = 0.000387441, Final residual = 2.09936e-07, No Iterations 1
Time = 0.00566s

DILUPBiCGStab:  Solving for T, Initial residual = 0.000386932, Final residual = 2.09078e-07, No Iterations 1
Time = 0.00567s

DILUPBiCGStab:  Solving for T, Initial residual = 0.000386425, Final residual = 2.08224e-07, No Iterations 1
Time = 0.00568s

DILUPBiCGStab:  Solving for T, Initial residual = 0.00038592, Final residual = 2.07375e-07, No Iterations 1
Time = 0.00569s

DILUPBiCGStab:  Solving for T, Initial residual = 0.000385417, Final residual = 2.06529e-07, No Iterations 1
Time = 0.0057s

DILUPBiCGStab:  Solving for T, Initial residual = 0.000384916, Final residual = 2.05688e-07, No Iterations 1
Time = 0.00571s

DILUPBiCGStab:  Solving for T, Initial residual = 0.000384418, Final residual = 2.04853e-07, No Iterations 1
Time = 0.00572s

DILUPBiCGStab:  Solving for T, Initial residual = 0.000383922, Final residual = 2.04022e-07, No Iterations 1
Time = 0.00573s

DILUPBiCGStab:  Solving for T, Initial residual = 0.000383429, Final residual = 2.03196e-07, No Iterations 1
Time = 0.00574s

DILUPBiCGStab:  Solving for T, Initial residual = 0.000382938, Final residual = 2.02374e-07, No Iterations 1
Time = 0.00575s

DILUPBiCGStab:  Solving for T, Initial residual = 0.000382448, Final residual = 2.01555e-07, No Iterations 1
Time = 0.00576s

DILUPBiCGStab:  Solving for T, Initial residual = 0.000381961, Final residual = 2.0074e-07, No Iterations 1
Time = 0.00577s

DILUPBiCGStab:  Solving for T, Initial residual = 0.000381475, Final residual = 1.9993e-07, No Iterations 1
Time = 0.00578s

DILUPBiCGStab:  Solving for T, Initial residual = 0.000380991, Final residual = 1.99125e-07, No Iterations 1
Time = 0.00579s

DILUPBiCGStab:  Solving for T, Initial residual = 0.000380511, Final residual = 1.98324e-07, No Iterations 1
Time = 0.0058s

DILUPBiCGStab:  Solving for T, Initial residual = 0.000380033, Final residual = 1.97527e-07, No Iterations 1
Time = 0.00581s

DILUPBiCGStab:  Solving for T, Initial residual = 0.000379557, Final residual = 1.96733e-07, No Iterations 1
Time = 0.00582s

DILUPBiCGStab:  Solving for T, Initial residual = 0.000379082, Final residual = 1.95944e-07, No Iterations 1
Time = 0.00583s

DILUPBiCGStab:  Solving for T, Initial residual = 0.000378609, Final residual = 1.95158e-07, No Iterations 1
Time = 0.00584s

DILUPBiCGStab:  Solving for T, Initial residual = 0.000378138, Final residual = 1.94378e-07, No Iterations 1
Time = 0.00585s

DILUPBiCGStab:  Solving for T, Initial residual = 0.000377669, Final residual = 1.93602e-07, No Iterations 1
Time = 0.00586s

DILUPBiCGStab:  Solving for T, Initial residual = 0.000377202, Final residual = 1.92831e-07, No Iterations 1
Time = 0.00587s

DILUPBiCGStab:  Solving for T, Initial residual = 0.000376738, Final residual = 1.92063e-07, No Iterations 1
Time = 0.00588s

DILUPBiCGStab:  Solving for T, Initial residual = 0.000376276, Final residual = 1.91299e-07, No Iterations 1
Time = 0.00589s

DILUPBiCGStab:  Solving for T, Initial residual = 0.000375816, Final residual = 1.90539e-07, No Iterations 1
Time = 0.0059s

DILUPBiCGStab:  Solving for T, Initial residual = 0.000375358, Final residual = 1.89785e-07, No Iterations 1
Time = 0.00591s

DILUPBiCGStab:  Solving for T, Initial residual = 0.000374901, Final residual = 1.89034e-07, No Iterations 1
Time = 0.00592s

DILUPBiCGStab:  Solving for T, Initial residual = 0.000374446, Final residual = 1.88286e-07, No Iterations 1
Time = 0.00593s

DILUPBiCGStab:  Solving for T, Initial residual = 0.000373993, Final residual = 1.87541e-07, No Iterations 1
Time = 0.00594s

DILUPBiCGStab:  Solving for T, Initial residual = 0.000373542, Final residual = 1.86801e-07, No Iterations 1
Time = 0.00595s

DILUPBiCGStab:  Solving for T, Initial residual = 0.000373094, Final residual = 1.86066e-07, No Iterations 1
Time = 0.00596s

DILUPBiCGStab:  Solving for T, Initial residual = 0.000372647, Final residual = 1.85335e-07, No Iterations 1
Time = 0.00597s

DILUPBiCGStab:  Solving for T, Initial residual = 0.000372203, Final residual = 1.84608e-07, No Iterations 1
Time = 0.00598s

DILUPBiCGStab:  Solving for T, Initial residual = 0.000371759, Final residual = 1.83884e-07, No Iterations 1
Time = 0.00599s

DILUPBiCGStab:  Solving for T, Initial residual = 0.000371318, Final residual = 1.83164e-07, No Iterations 1
Time = 0.006s

DILUPBiCGStab:  Solving for T, Initial residual = 0.000370878, Final residual = 1.82446e-07, No Iterations 1
Time = 0.00601s

DILUPBiCGStab:  Solving for T, Initial residual = 0.00037044, Final residual = 1.81735e-07, No Iterations 1
Time = 0.00602s

DILUPBiCGStab:  Solving for T, Initial residual = 0.000370005, Final residual = 1.81027e-07, No Iterations 1
Time = 0.00603s

DILUPBiCGStab:  Solving for T, Initial residual = 0.000369571, Final residual = 1.80322e-07, No Iterations 1
Time = 0.00604s

DILUPBiCGStab:  Solving for T, Initial residual = 0.00036914, Final residual = 1.79623e-07, No Iterations 1
Time = 0.00605s

DILUPBiCGStab:  Solving for T, Initial residual = 0.00036871, Final residual = 1.78928e-07, No Iterations 1
Time = 0.00606s

DILUPBiCGStab:  Solving for T, Initial residual = 0.000368281, Final residual = 1.78237e-07, No Iterations 1
Time = 0.00607s

DILUPBiCGStab:  Solving for T, Initial residual = 0.000367854, Final residual = 1.7755e-07, No Iterations 1
Time = 0.00608s

DILUPBiCGStab:  Solving for T, Initial residual = 0.000367429, Final residual = 1.76866e-07, No Iterations 1
Time = 0.00609s

DILUPBiCGStab:  Solving for T, Initial residual = 0.000367005, Final residual = 1.76185e-07, No Iterations 1
Time = 0.0061s

DILUPBiCGStab:  Solving for T, Initial residual = 0.000366584, Final residual = 1.75507e-07, No Iterations 1
Time = 0.00611s

DILUPBiCGStab:  Solving for T, Initial residual = 0.000366165, Final residual = 1.74832e-07, No Iterations 1
Time = 0.00612s

DILUPBiCGStab:  Solving for T, Initial residual = 0.000365747, Final residual = 1.7416e-07, No Iterations 1
Time = 0.00613s

DILUPBiCGStab:  Solving for T, Initial residual = 0.000365332, Final residual = 1.73493e-07, No Iterations 1
Time = 0.00614s

DILUPBiCGStab:  Solving for T, Initial residual = 0.000364918, Final residual = 1.72829e-07, No Iterations 1
Time = 0.00615s

DILUPBiCGStab:  Solving for T, Initial residual = 0.000364505, Final residual = 1.72168e-07, No Iterations 1
Time = 0.00616s

DILUPBiCGStab:  Solving for T, Initial residual = 0.000364094, Final residual = 1.7151e-07, No Iterations 1
Time = 0.00617s

DILUPBiCGStab:  Solving for T, Initial residual = 0.000363684, Final residual = 1.70855e-07, No Iterations 1
Time = 0.00618s

DILUPBiCGStab:  Solving for T, Initial residual = 0.000363277, Final residual = 1.70203e-07, No Iterations 1
Time = 0.00619s

DILUPBiCGStab:  Solving for T, Initial residual = 0.000362871, Final residual = 1.69556e-07, No Iterations 1
Time = 0.0062s

DILUPBiCGStab:  Solving for T, Initial residual = 0.000362467, Final residual = 1.68912e-07, No Iterations 1
Time = 0.00621s

DILUPBiCGStab:  Solving for T, Initial residual = 0.000362065, Final residual = 1.68273e-07, No Iterations 1
Time = 0.00622s

DILUPBiCGStab:  Solving for T, Initial residual = 0.000361664, Final residual = 1.67636e-07, No Iterations 1
Time = 0.00623s

DILUPBiCGStab:  Solving for T, Initial residual = 0.000361265, Final residual = 1.67004e-07, No Iterations 1
Time = 0.00624s

DILUPBiCGStab:  Solving for T, Initial residual = 0.000360867, Final residual = 1.66374e-07, No Iterations 1
Time = 0.00625s

DILUPBiCGStab:  Solving for T, Initial residual = 0.000360471, Final residual = 1.65747e-07, No Iterations 1
Time = 0.00626s

DILUPBiCGStab:  Solving for T, Initial residual = 0.000360077, Final residual = 1.65124e-07, No Iterations 1
Time = 0.00627s

DILUPBiCGStab:  Solving for T, Initial residual = 0.000359684, Final residual = 1.64503e-07, No Iterations 1
Time = 0.00628s

DILUPBiCGStab:  Solving for T, Initial residual = 0.000359293, Final residual = 1.63887e-07, No Iterations 1
Time = 0.00629s

[...]
Time = 0.09842s

DILUPBiCGStab:  Solving for T, Initial residual = 0.000306322, Final residual = 5.23805e-08, No Iterations 1
Time = 0.09843s

DILUPBiCGStab:  Solving for T, Initial residual = 0.000306319, Final residual = 5.23804e-08, No Iterations 1
Time = 0.09844s

DILUPBiCGStab:  Solving for T, Initial residual = 0.000306316, Final residual = 5.23803e-08, No Iterations 1
Time = 0.09845s

DILUPBiCGStab:  Solving for T, Initial residual = 0.000306312, Final residual = 5.23802e-08, No Iterations 1
Time = 0.09846s

DILUPBiCGStab:  Solving for T, Initial residual = 0.000306309, Final residual = 5.23801e-08, No Iterations 1
Time = 0.09847s

DILUPBiCGStab:  Solving for T, Initial residual = 0.000306306, Final residual = 5.238e-08, No Iterations 1
Time = 0.09848s

DILUPBiCGStab:  Solving for T, Initial residual = 0.000306303, Final residual = 5.23799e-08, No Iterations 1
Time = 0.09849s

DILUPBiCGStab:  Solving for T, Initial residual = 0.000306299, Final residual = 5.23798e-08, No Iterations 1
Time = 0.0985s

DILUPBiCGStab:  Solving for T, Initial residual = 0.000306296, Final residual = 5.23797e-08, No Iterations 1
Time = 0.09851s

DILUPBiCGStab:  Solving for T, Initial residual = 0.000306293, Final residual = 5.23796e-08, No Iterations 1
Time = 0.09852s

DILUPBiCGStab:  Solving for T, Initial residual = 0.000306289, Final residual = 5.23795e-08, No Iterations 1
Time = 0.09853s

DILUPBiCGStab:  Solving for T, Initial residual = 0.000306286, Final residual = 5.23794e-08, No Iterations 1
Time = 0.09854s

DILUPBiCGStab:  Solving for T, Initial residual = 0.000306283, Final residual = 5.23793e-08, No Iterations 1
Time = 0.09855s

DILUPBiCGStab:  Solving for T, Initial residual = 0.00030628, Final residual = 5.23792e-08, No Iterations 1
Time = 0.09856s

DILUPBiCGStab:  Solving for T, Initial residual = 0.000306276, Final residual = 5.2379e-08, No Iterations 1
Time = 0.09857s

DILUPBiCGStab:  Solving for T, Initial residual = 0.000306273, Final residual = 5.23789e-08, No Iterations 1
Time = 0.09858s

DILUPBiCGStab:  Solving for T, Initial residual = 0.00030627, Final residual = 5.23788e-08, No Iterations 1
Time = 0.09859s

DILUPBiCGStab:  Solving for T, Initial residual = 0.000306266, Final residual = 5.23787e-08, No Iterations 1
Time = 0.0986s

DILUPBiCGStab:  Solving for T, Initial residual = 0.000306263, Final residual = 5.23786e-08, No Iterations 1
Time = 0.09861s

DILUPBiCGStab:  Solving for T, Initial residual = 0.00030626, Final residual = 5.23785e-08, No Iterations 1
Time = 0.09862s

DILUPBiCGStab:  Solving for T, Initial residual = 0.000306257, Final residual = 5.23784e-08, No Iterations 1
Time = 0.09863s

DILUPBiCGStab:  Solving for T, Initial residual = 0.000306253, Final residual = 5.23783e-08, No Iterations 1
Time = 0.09864s

DILUPBiCGStab:  Solving for T, Initial residual = 0.00030625, Final residual = 5.23782e-08, No Iterations 1
Time = 0.09865s

DILUPBiCGStab:  Solving for T, Initial residual = 0.000306247, Final residual = 5.23781e-08, No Iterations 1
Time = 0.09866s

DILUPBiCGStab:  Solving for T, Initial residual = 0.000306243, Final residual = 5.2378e-08, No Iterations 1
Time = 0.09867s

DILUPBiCGStab:  Solving for T, Initial residual = 0.00030624, Final residual = 5.23778e-08, No Iterations 1
Time = 0.09868s

DILUPBiCGStab:  Solving for T, Initial residual = 0.000306237, Final residual = 5.23777e-08, No Iterations 1
Time = 0.09869s

DILUPBiCGStab:  Solving for T, Initial residual = 0.000306234, Final residual = 5.23776e-08, No Iterations 1
Time = 0.0987s

DILUPBiCGStab:  Solving for T, Initial residual = 0.00030623, Final residual = 5.23775e-08, No Iterations 1
Time = 0.09871s

DILUPBiCGStab:  Solving for T, Initial residual = 0.000306227, Final residual = 5.23774e-08, No Iterations 1
Time = 0.09872s

DILUPBiCGStab:  Solving for T, Initial residual = 0.000306224, Final residual = 5.23773e-08, No Iterations 1
Time = 0.09873s

DILUPBiCGStab:  Solving for T, Initial residual = 0.00030622, Final residual = 5.23772e-08, No Iterations 1
Time = 0.09874s

DILUPBiCGStab:  Solving for T, Initial residual = 0.000306217, Final residual = 5.23771e-08, No Iterations 1
Time = 0.09875s

DILUPBiCGStab:  Solving for T, Initial residual = 0.000306214, Final residual = 5.23769e-08, No Iterations 1
Time = 0.09876s

DILUPBiCGStab:  Solving for T, Initial residual = 0.00030621, Final residual = 5.23768e-08, No Iterations 1
Time = 0.09877s

DILUPBiCGStab:  Solving for T, Initial residual = 0.000306207, Final residual = 5.23767e-08, No Iterations 1
Time = 0.09878s

DILUPBiCGStab:  Solving for T, Initial residual = 0.000306204, Final residual = 5.23766e-08, No Iterations 1
Time = 0.09879s

DILUPBiCGStab:  Solving for T, Initial residual = 0.000306201, Final residual = 5.23765e-08, No Iterations 1
Time = 0.0988s

DILUPBiCGStab:  Solving for T, Initial residual = 0.000306197, Final residual = 5.23764e-08, No Iterations 1
Time = 0.09881s

DILUPBiCGStab:  Solving for T, Initial residual = 0.000306194, Final residual = 5.23763e-08, No Iterations 1
Time = 0.09882s

DILUPBiCGStab:  Solving for T, Initial residual = 0.000306191, Final residual = 5.23761e-08, No Iterations 1
Time = 0.09883s

DILUPBiCGStab:  Solving for T, Initial residual = 0.000306187, Final residual = 5.2376e-08, No Iterations 1
Time = 0.09884s

DILUPBiCGStab:  Solving for T, Initial residual = 0.000306184, Final residual = 5.23759e-08, No Iterations 1
Time = 0.09885s

DILUPBiCGStab:  Solving for T, Initial residual = 0.000306181, Final residual = 5.23758e-08, No Iterations 1
Time = 0.09886s

DILUPBiCGStab:  Solving for T, Initial residual = 0.000306177, Final residual = 5.23757e-08, No Iterations 1
Time = 0.09887s

DILUPBiCGStab:  Solving for T, Initial residual = 0.000306174, Final residual = 5.23756e-08, No Iterations 1
Time = 0.09888s

DILUPBiCGStab:  Solving for T, Initial residual = 0.000306171, Final residual = 5.23754e-08, No Iterations 1
Time = 0.09889s

DILUPBiCGStab:  Solving for T, Initial residual = 0.000306168, Final residual = 5.23753e-08, No Iterations 1
Time = 0.0989s

DILUPBiCGStab:  Solving for T, Initial residual = 0.000306164, Final residual = 5.23752e-08, No Iterations 1
Time = 0.09891s

DILUPBiCGStab:  Solving for T, Initial residual = 0.000306161, Final residual = 5.23751e-08, No Iterations 1
Time = 0.09892s

DILUPBiCGStab:  Solving for T, Initial residual = 0.000306158, Final residual = 5.2375e-08, No Iterations 1
Time = 0.09893s

DILUPBiCGStab:  Solving for T, Initial residual = 0.000306154, Final residual = 5.23749e-08, No Iterations 1
Time = 0.09894s

DILUPBiCGStab:  Solving for T, Initial residual = 0.000306151, Final residual = 5.23747e-08, No Iterations 1
Time = 0.09895s

DILUPBiCGStab:  Solving for T, Initial residual = 0.000306148, Final residual = 5.23746e-08, No Iterations 1
Time = 0.09896s

DILUPBiCGStab:  Solving for T, Initial residual = 0.000306144, Final residual = 5.23745e-08, No Iterations 1
Time = 0.09897s

DILUPBiCGStab:  Solving for T, Initial residual = 0.000306141, Final residual = 5.23744e-08, No Iterations 1
Time = 0.09898s

DILUPBiCGStab:  Solving for T, Initial residual = 0.000306138, Final residual = 5.23743e-08, No Iterations 1
Time = 0.09899s

DILUPBiCGStab:  Solving for T, Initial residual = 0.000306135, Final residual = 5.23741e-08, No Iterations 1
Time = 0.099s

DILUPBiCGStab:  Solving for T, Initial residual = 0.000306131, Final residual = 5.2374e-08, No Iterations 1
Time = 0.09901s

DILUPBiCGStab:  Solving for T, Initial residual = 0.000306128, Final residual = 5.23739e-08, No Iterations 1
Time = 0.09902s

DILUPBiCGStab:  Solving for T, Initial residual = 0.000306125, Final residual = 5.23738e-08, No Iterations 1
Time = 0.09903s

DILUPBiCGStab:  Solving for T, Initial residual = 0.000306121, Final residual = 5.23737e-08, No Iterations 1
Time = 0.09904s

DILUPBiCGStab:  Solving for T, Initial residual = 0.000306118, Final residual = 5.23735e-08, No Iterations 1
Time = 0.09905s

DILUPBiCGStab:  Solving for T, Initial residual = 0.000306115, Final residual = 5.23734e-08, No Iterations 1
Time = 0.09906s

DILUPBiCGStab:  Solving for T, Initial residual = 0.000306111, Final residual = 5.23733e-08, No Iterations 1
Time = 0.09907s

DILUPBiCGStab:  Solving for T, Initial residual = 0.000306108, Final residual = 5.23732e-08, No Iterations 1
Time = 0.09908s

DILUPBiCGStab:  Solving for T, Initial residual = 0.000306105, Final residual = 5.2373e-08, No Iterations 1
Time = 0.09909s

DILUPBiCGStab:  Solving for T, Initial residual = 0.000306101, Final residual = 5.23729e-08, No Iterations 1
Time = 0.0991s

DILUPBiCGStab:  Solving for T, Initial residual = 0.000306098, Final residual = 5.23728e-08, No Iterations 1
Time = 0.09911s

DILUPBiCGStab:  Solving for T, Initial residual = 0.000306095, Final residual = 5.23727e-08, No Iterations 1
Time = 0.09912s

DILUPBiCGStab:  Solving for T, Initial residual = 0.000306091, Final residual = 5.23726e-08, No Iterations 1
Time = 0.09913s

DILUPBiCGStab:  Solving for T, Initial residual = 0.000306088, Final residual = 5.23724e-08, No Iterations 1
Time = 0.09914s

DILUPBiCGStab:  Solving for T, Initial residual = 0.000306085, Final residual = 5.23723e-08, No Iterations 1
Time = 0.09915s

DILUPBiCGStab:  Solving for T, Initial residual = 0.000306081, Final residual = 5.23722e-08, No Iterations 1
Time = 0.09916s

DILUPBiCGStab:  Solving for T, Initial residual = 0.000306078, Final residual = 5.2372e-08, No Iterations 1
Time = 0.09917s

DILUPBiCGStab:  Solving for T, Initial residual = 0.000306075, Final residual = 5.23719e-08, No Iterations 1
Time = 0.09918s

DILUPBiCGStab:  Solving for T, Initial residual = 0.000306071, Final residual = 5.23718e-08, No Iterations 1
Time = 0.09919s

DILUPBiCGStab:  Solving for T, Initial residual = 0.000306068, Final residual = 5.23717e-08, No Iterations 1
Time = 0.0992s

DILUPBiCGStab:  Solving for T, Initial residual = 0.000306065, Final residual = 5.23715e-08, No Iterations 1
Time = 0.09921s

DILUPBiCGStab:  Solving for T, Initial residual = 0.000306061, Final residual = 5.23714e-08, No Iterations 1
Time = 0.09922s

DILUPBiCGStab:  Solving for T, Initial residual = 0.000306058, Final residual = 5.23713e-08, No Iterations 1
Time = 0.09923s

DILUPBiCGStab:  Solving for T, Initial residual = 0.000306055, Final residual = 5.23712e-08, No Iterations 1
Time = 0.09924s

DILUPBiCGStab:  Solving for T, Initial residual = 0.000306051, Final residual = 5.2371e-08, No Iterations 1
Time = 0.09925s

DILUPBiCGStab:  Solving for T, Initial residual = 0.000306048, Final residual = 5.23709e-08, No Iterations 1
Time = 0.09926s

DILUPBiCGStab:  Solving for T, Initial residual = 0.000306045, Final residual = 5.23708e-08, No Iterations 1
Time = 0.09927s

DILUPBiCGStab:  Solving for T, Initial residual = 0.000306041, Final residual = 5.23706e-08, No Iterations 1
Time = 0.09928s

DILUPBiCGStab:  Solving for T, Initial residual = 0.000306038, Final residual = 5.23705e-08, No Iterations 1
Time = 0.09929s

DILUPBiCGStab:  Solving for T, Initial residual = 0.000306035, Final residual = 5.23704e-08, No Iterations 1
Time = 0.0993s

DILUPBiCGStab:  Solving for T, Initial residual = 0.000306031, Final residual = 5.23703e-08, No Iterations 1
Time = 0.09931s

DILUPBiCGStab:  Solving for T, Initial residual = 0.000306028, Final residual = 5.23701e-08, No Iterations 1
Time = 0.09932s

DILUPBiCGStab:  Solving for T, Initial residual = 0.000306025, Final residual = 5.237e-08, No Iterations 1
Time = 0.09933s

DILUPBiCGStab:  Solving for T, Initial residual = 0.000306021, Final residual = 5.23699e-08, No Iterations 1
Time = 0.09934s

DILUPBiCGStab:  Solving for T, Initial residual = 0.000306018, Final residual = 5.23697e-08, No Iterations 1
Time = 0.09935s

DILUPBiCGStab:  Solving for T, Initial residual = 0.000306015, Final residual = 5.23696e-08, No Iterations 1
Time = 0.09936s

DILUPBiCGStab:  Solving for T, Initial residual = 0.000306011, Final residual = 5.23695e-08, No Iterations 1
Time = 0.09937s

DILUPBiCGStab:  Solving for T, Initial residual = 0.000306008, Final residual = 5.23693e-08, No Iterations 1
Time = 0.09938s

DILUPBiCGStab:  Solving for T, Initial residual = 0.000306005, Final residual = 5.23692e-08, No Iterations 1
Time = 0.09939s

DILUPBiCGStab:  Solving for T, Initial residual = 0.000306001, Final residual = 5.23691e-08, No Iterations 1
Time = 0.0994s

DILUPBiCGStab:  Solving for T, Initial residual = 0.000305998, Final residual = 5.23689e-08, No Iterations 1
Time = 0.09941s

DILUPBiCGStab:  Solving for T, Initial residual = 0.000305995, Final residual = 5.23688e-08, No Iterations 1
Time = 0.09942s

DILUPBiCGStab:  Solving for T, Initial residual = 0.000305991, Final residual = 5.23687e-08, No Iterations 1
Time = 0.09943s

DILUPBiCGStab:  Solving for T, Initial residual = 0.000305988, Final residual = 5.23686e-08, No Iterations 1
Time = 0.09944s

DILUPBiCGStab:  Solving for T, Initial residual = 0.000305985, Final residual = 5.23684e-08, No Iterations 1
Time = 0.09945s

DILUPBiCGStab:  Solving for T, Initial residual = 0.000305981, Final residual = 5.23683e-08, No Iterations 1
Time = 0.09946s

DILUPBiCGStab:  Solving for T, Initial residual = 0.000305978, Final residual = 5.23682e-08, No Iterations 1
Time = 0.09947s

DILUPBiCGStab:  Solving for T, Initial residual = 0.000305975, Final residual = 5.2368e-08, No Iterations 1
Time = 0.09948s

DILUPBiCGStab:  Solving for T, Initial residual = 0.000305971, Final residual = 5.23679e-08, No Iterations 1
Time = 0.09949s

DILUPBiCGStab:  Solving for T, Initial residual = 0.000305968, Final residual = 5.23678e-08, No Iterations 1
Time = 0.0995s

DILUPBiCGStab:  Solving for T, Initial residual = 0.000305965, Final residual = 5.23676e-08, No Iterations 1
Time = 0.09951s

DILUPBiCGStab:  Solving for T, Initial residual = 0.000305961, Final residual = 5.23675e-08, No Iterations 1
Time = 0.09952s

DILUPBiCGStab:  Solving for T, Initial residual = 0.000305958, Final residual = 5.23673e-08, No Iterations 1
Time = 0.09953s

DILUPBiCGStab:  Solving for T, Initial residual = 0.000305955, Final residual = 5.23672e-08, No Iterations 1
Time = 0.09954s

DILUPBiCGStab:  Solving for T, Initial residual = 0.000305951, Final residual = 5.23671e-08, No Iterations 1
Time = 0.09955s

DILUPBiCGStab:  Solving for T, Initial residual = 0.000305948, Final residual = 5.23669e-08, No Iterations 1
Time = 0.09956s

DILUPBiCGStab:  Solving for T, Initial residual = 0.000305945, Final residual = 5.23668e-08, No Iterations 1
Time = 0.09957s

DILUPBiCGStab:  Solving for T, Initial residual = 0.000305941, Final residual = 5.23667e-08, No Iterations 1
Time = 0.09958s

DILUPBiCGStab:  Solving for T, Initial residual = 0.000305938, Final residual = 5.23665e-08, No Iterations 1
Time = 0.09959s

DILUPBiCGStab:  Solving for T, Initial residual = 0.000305934, Final residual = 5.23664e-08, No Iterations 1
Time = 0.0996s

DILUPBiCGStab:  Solving for T, Initial residual = 0.000305931, Final residual = 5.23662e-08, No Iterations 1
Time = 0.09961s

DILUPBiCGStab:  Solving for T, Initial residual = 0.000305928, Final residual = 5.23661e-08, No Iterations 1
Time = 0.09962s

DILUPBiCGStab:  Solving for T, Initial residual = 0.000305924, Final residual = 5.2366e-08, No Iterations 1
Time = 0.09963s

DILUPBiCGStab:  Solving for T, Initial residual = 0.000305921, Final residual = 5.23658e-08, No Iterations 1
Time = 0.09964s

DILUPBiCGStab:  Solving for T, Initial residual = 0.000305918, Final residual = 5.23657e-08, No Iterations 1
Time = 0.09965s

DILUPBiCGStab:  Solving for T, Initial residual = 0.000305914, Final residual = 5.23655e-08, No Iterations 1
Time = 0.09966s

DILUPBiCGStab:  Solving for T, Initial residual = 0.000305911, Final residual = 5.23654e-08, No Iterations 1
Time = 0.09967s

DILUPBiCGStab:  Solving for T, Initial residual = 0.000305908, Final residual = 5.23653e-08, No Iterations 1
Time = 0.09968s

DILUPBiCGStab:  Solving for T, Initial residual = 0.000305904, Final residual = 5.23651e-08, No Iterations 1
Time = 0.09969s

DILUPBiCGStab:  Solving for T, Initial residual = 0.000305901, Final residual = 5.2365e-08, No Iterations 1
Time = 0.0997s

DILUPBiCGStab:  Solving for T, Initial residual = 0.000305897, Final residual = 5.23648e-08, No Iterations 1
Time = 0.09971s

DILUPBiCGStab:  Solving for T, Initial residual = 0.000305894, Final residual = 5.23647e-08, No Iterations 1
Time = 0.09972s

DILUPBiCGStab:  Solving for T, Initial residual = 0.000305891, Final residual = 5.23645e-08, No Iterations 1
Time = 0.09973s

DILUPBiCGStab:  Solving for T, Initial residual = 0.000305887, Final residual = 5.23644e-08, No Iterations 1
Time = 0.09974s

DILUPBiCGStab:  Solving for T, Initial residual = 0.000305884, Final residual = 5.23643e-08, No Iterations 1
Time = 0.09975s

DILUPBiCGStab:  Solving for T, Initial residual = 0.000305881, Final residual = 5.23641e-08, No Iterations 1
Time = 0.09976s

DILUPBiCGStab:  Solving for T, Initial residual = 0.000305877, Final residual = 5.2364e-08, No Iterations 1
Time = 0.09977s

DILUPBiCGStab:  Solving for T, Initial residual = 0.000305874, Final residual = 5.23638e-08, No Iterations 1
Time = 0.09978s

DILUPBiCGStab:  Solving for T, Initial residual = 0.00030587, Final residual = 5.23637e-08, No Iterations 1
Time = 0.09979s

DILUPBiCGStab:  Solving for T, Initial residual = 0.000305867, Final residual = 5.23635e-08, No Iterations 1
Time = 0.0998s

DILUPBiCGStab:  Solving for T, Initial residual = 0.000305864, Final residual = 5.23634e-08, No Iterations 1
Time = 0.09981s

DILUPBiCGStab:  Solving for T, Initial residual = 0.00030586, Final residual = 5.23632e-08, No Iterations 1
Time = 0.09982s

DILUPBiCGStab:  Solving for T, Initial residual = 0.000305857, Final residual = 5.23631e-08, No Iterations 1
Time = 0.09983s

DILUPBiCGStab:  Solving for T, Initial residual = 0.000305854, Final residual = 5.2363e-08, No Iterations 1
Time = 0.09984s

DILUPBiCGStab:  Solving for T, Initial residual = 0.00030585, Final residual = 5.23628e-08, No Iterations 1
Time = 0.09985s

DILUPBiCGStab:  Solving for T, Initial residual = 0.000305847, Final residual = 5.23627e-08, No Iterations 1
Time = 0.09986s

DILUPBiCGStab:  Solving for T, Initial residual = 0.000305843, Final residual = 5.23625e-08, No Iterations 1
Time = 0.09987s

DILUPBiCGStab:  Solving for T, Initial residual = 0.00030584, Final residual = 5.23624e-08, No Iterations 1
Time = 0.09988s

DILUPBiCGStab:  Solving for T, Initial residual = 0.000305837, Final residual = 5.23622e-08, No Iterations 1
Time = 0.09989s

DILUPBiCGStab:  Solving for T, Initial residual = 0.000305833, Final residual = 5.23621e-08, No Iterations 1
Time = 0.0999s

DILUPBiCGStab:  Solving for T, Initial residual = 0.00030583, Final residual = 5.23619e-08, No Iterations 1
Time = 0.09991s

DILUPBiCGStab:  Solving for T, Initial residual = 0.000305827, Final residual = 5.23618e-08, No Iterations 1
Time = 0.09992s

DILUPBiCGStab:  Solving for T, Initial residual = 0.000305823, Final residual = 5.23616e-08, No Iterations 1
Time = 0.09993s

DILUPBiCGStab:  Solving for T, Initial residual = 0.00030582, Final residual = 5.23615e-08, No Iterations 1
Time = 0.09994s

DILUPBiCGStab:  Solving for T, Initial residual = 0.000305816, Final residual = 5.23613e-08, No Iterations 1
Time = 0.09995s

DILUPBiCGStab:  Solving for T, Initial residual = 0.000305813, Final residual = 5.23612e-08, No Iterations 1
Time = 0.09996s

DILUPBiCGStab:  Solving for T, Initial residual = 0.00030581, Final residual = 5.2361e-08, No Iterations 1
Time = 0.09997s

DILUPBiCGStab:  Solving for T, Initial residual = 0.000305806, Final residual = 5.23609e-08, No Iterations 1
Time = 0.09998s

DILUPBiCGStab:  Solving for T, Initial residual = 0.000305803, Final residual = 5.23607e-08, No Iterations 1
Time = 0.09999s

DILUPBiCGStab:  Solving for T, Initial residual = 0.0003058, Final residual = 5.23606e-08, No Iterations 1
Time = 0.1s

DILUPBiCGStab:  Solving for T, Initial residual = 0.000305796, Final residual = 5.23604e-08, No Iterations 1
End

