/*---------------------------------------------------------------------------*\
  =========                 |
  \\      /  F ield         | OpenFOAM: The Open Source CFD Toolbox
   \\    /   O peration     | Website:  https://openfoam.org
    \\  /    A nd           | Version:  10
     \\/     M anipulation  |
\*---------------------------------------------------------------------------*/
Build  : 10-c4cf895ad8fa
Exec   : impesSgFoam
Date   : Feb 28 2025
Time   : 22:35:17
Host   : "HWLAP0350-EPS"
PID    : 30347
I/O    : uncollated
Case   : /home/ap2095/OpenFOAM/ap2095-10/run/6pitzdaily_impesSgfoam_gas_inj_3s
nProcs : 1
sigFpe : Enabling floating point exception trapping (FOAM_SIGFPE).
fileModificationChecking : Monitoring run-time modified files using timeStampMaster (fileModificationSkew 10)
allowSystemOperations : Allowing user-supplied system call operations

// * * * * * * * * * * * * * * * * * * * * * * * * * * * * * * * * * * * * * //

**********************************
Current version of PMF is 2310.0.0
**********************************

Create time

Create mesh for time = 0


Reading g
Reading pressure field p

Reading saturation field Sb

Reading transportProperties
Sbmax = 0.999999 [0 0 0 0 0 0 0] 0.999999
Sbmin = 1e-06 [0 0 0 0 0 0 0] 1e-06

Computing field phia from field Ua

Computing field phib from field Ub

Selecting porousMedium model => simplePorosity

Selecting capillarity model for field Sb => BrooksAndCorey

Brooks and Corey parameters for capillarity pressure model
{
    Sbmin 1e-06
    Sbmax 0.999999
    pc0 5
    alpha 0.2
    hd 0
} 

Selecting relativePermeability model for field Sb => BrooksAndCorey

Brooks and Corey parameters for relative permeability model
{
    Sbmin 1e-06
    Sbmax 0.999999
    n 4
    kramax 1
    krbmax 1
} 


Reading field U
Reading/calculating face flux field phi


Reading Event file 'injection.evt' ...OK!
{
  number of dates       = 2
  number of coordinates = 1
  number datas          = 2
}

Starting time loop

Coats CFL Number mean: 5.37903e-14 max: 8.42674e-13
deltaT = 0.000119904
Time = 0.000119904

diagonal:  Solving for Sb, Initial residual = 0, Final residual = 0, No Iterations 0
Saturation b:  Min(Sb) = 0.0011 Max(Sb) = 0.0501207
DICPCG:  Solving for p, Initial residual = 1, Final residual = 7.73387e-13, No Iterations 292
ExecutionTime = 0.359375 s  ClockTime = 0 s

Coats CFL Number mean: 4.64711e-08 max: 0.000561716
deltaT = 0.000143712
Time = 0.000263616

diagonal:  Solving for Sb, Initial residual = 0, Final residual = 0, No Iterations 0
Saturation b:  Min(Sb) = 0.0011 Max(Sb) = 0.10887
DICPCG:  Solving for p, Initial residual = 0.0166261, Final residual = 7.91244e-13, No Iterations 264
ExecutionTime = 0.453125 s  ClockTime = 0 s

Coats CFL Number mean: 7.71477e-07 max: 0.00942363
deltaT = 0.000172256
Time = 0.000435873

diagonal:  Solving for Sb, Initial residual = 0, Final residual = 0, No Iterations 0
Saturation b:  Min(Sb) = 0.0011 Max(Sb) = 0.179019
DICPCG:  Solving for p, Initial residual = 0.00464865, Final residual = 8.57787e-13, No Iterations 252
ExecutionTime = 0.546875 s  ClockTime = 0 s

Coats CFL Number mean: 5.77077e-06 max: 0.0705385
deltaT = 0.000206565
Time = 0.000642437

diagonal:  Solving for Sb, Initial residual = 0, Final residual = 0, No Iterations 0
Saturation b:  Min(Sb) = 0.0011 Max(Sb) = 0.260238
DICPCG:  Solving for p, Initial residual = 0.00345375, Final residual = 9.30743e-13, No Iterations 245
ExecutionTime = 0.625 s  ClockTime = 0 s

Coats CFL Number mean: 2.40047e-05 max: 0.293446
deltaT = 0.000247774
Time = 0.000890212

diagonal:  Solving for Sb, Initial residual = 0, Final residual = 0, No Iterations 0
Saturation b:  Min(Sb) = 0.0011 Max(Sb) = 0.340029
DICPCG:  Solving for p, Initial residual = 0.0025811, Final residual = 8.46925e-13, No Iterations 242
ExecutionTime = 0.71875 s  ClockTime = 0 s

Coats CFL Number mean: 3.65025e-05 max: 0.446213
deltaT = 0.00028895
Time = 0.00117916

diagonal:  Solving for Sb, Initial residual = 0, Final residual = 0, No Iterations 0
Saturation b:  Min(Sb) = 0.0011 Max(Sb) = 0.392763
DICPCG:  Solving for p, Initial residual = 0.00686468, Final residual = 8.39957e-13, No Iterations 245
ExecutionTime = 0.8125 s  ClockTime = 1 s

Coats CFL Number mean: 3.00522e-05 max: 0.36656
deltaT = 0.00034674
Time = 0.0015259

diagonal:  Solving for Sb, Initial residual = 0, Final residual = 0, No Iterations 0
Saturation b:  Min(Sb) = 0.0011 Max(Sb) = 0.427505
DICPCG:  Solving for p, Initial residual = 0.0069155, Final residual = 9.0939e-13, No Iterations 248
ExecutionTime = 0.90625 s  ClockTime = 1 s

Coats CFL Number mean: 2.57111e-05 max: 0.302648
deltaT = 0.000415503
Time = 0.0019414

diagonal:  Solving for Sb, Initial residual = 0, Final residual = 0, No Iterations 0
Saturation b:  Min(Sb) = 0.0011 Max(Sb) = 0.45375
DICPCG:  Solving for p, Initial residual = 0.00682918, Final residual = 9.52961e-13, No Iterations 245
ExecutionTime = 0.984375 s  ClockTime = 1 s

Coats CFL Number mean: 2.8817e-05 max: 0.261119
deltaT = 0.000497759
Time = 0.00243916

diagonal:  Solving for Sb, Initial residual = 0, Final residual = 0, No Iterations 0
Saturation b:  Min(Sb) = 0.0011 Max(Sb) = 0.475446
DICPCG:  Solving for p, Initial residual = 0.00677237, Final residual = 7.52421e-13, No Iterations 251
ExecutionTime = 1.07812 s  ClockTime = 1 s

Coats CFL Number mean: 6.02339e-05 max: 0.246587
deltaT = 0.000594883
Time = 0.00303405

diagonal:  Solving for Sb, Initial residual = 0, Final residual = 0, No Iterations 0
Saturation b:  Min(Sb) = 0.0011 Max(Sb) = 0.494331
DICPCG:  Solving for p, Initial residual = 0.00539289, Final residual = 9.95093e-13, No Iterations 251
ExecutionTime = 1.17188 s  ClockTime = 1 s

Coats CFL Number mean: 0.000153981 max: 0.745276
deltaT = 0.000598555
Time = 0.0036326

diagonal:  Solving for Sb, Initial residual = 0, Final residual = 0, No Iterations 0
Saturation b:  Min(Sb) = 0.0011 Max(Sb) = 0.508663
DICPCG:  Solving for p, Initial residual = 0.00328612, Final residual = 8.98886e-13, No Iterations 254
ExecutionTime = 1.25 s  ClockTime = 1 s

Coats CFL Number mean: 0.000185817 max: 0.879442
deltaT = 0.00050988
Time = 0.00414248

diagonal:  Solving for Sb, Initial residual = 0, Final residual = 0, No Iterations 0
Saturation b:  Min(Sb) = 0.0011 Max(Sb) = 0.518488
DICPCG:  Solving for p, Initial residual = 0.00392381, Final residual = 8.73993e-13, No Iterations 251
ExecutionTime = 1.32812 s  ClockTime = 1 s

Coats CFL Number mean: 0.000146594 max: 0.637246
deltaT = 0.000567204
Time = 0.00470969

diagonal:  Solving for Sb, Initial residual = 0, Final residual = 0, No Iterations 0
Saturation b:  Min(Sb) = 0.0011 Max(Sb) = 0.527891
DICPCG:  Solving for p, Initial residual = 0.00457478, Final residual = 7.9353e-13, No Iterations 249
ExecutionTime = 1.42188 s  ClockTime = 1 s

Coats CFL Number mean: 0.000143528 max: 0.568964
deltaT = 0.000639532
Time = 0.00534922

diagonal:  Solving for Sb, Initial residual = 0, Final residual = 0, No Iterations 0
Saturation b:  Min(Sb) = 0.0011 Max(Sb) = 0.537061
DICPCG:  Solving for p, Initial residual = 0.0051868, Final residual = 8.89994e-13, No Iterations 252
ExecutionTime = 1.5 s  ClockTime = 1 s

Coats CFL Number mean: 0.000149903 max: 0.512618
deltaT = 0.000728083
Time = 0.0060773

diagonal:  Solving for Sb, Initial residual = 0, Final residual = 0, No Iterations 0
Saturation b:  Min(Sb) = 0.0011 Max(Sb) = 0.546114
DICPCG:  Solving for p, Initial residual = 0.00534998, Final residual = 8.33679e-13, No Iterations 249
ExecutionTime = 1.57812 s  ClockTime = 1 s

Coats CFL Number mean: 0.000193625 max: 0.500884
deltaT = 0.000831174
Time = 0.00690848

diagonal:  Solving for Sb, Initial residual = 0, Final residual = 0, No Iterations 0
Saturation b:  Min(Sb) = 0.0011 Max(Sb) = 0.555084
DICPCG:  Solving for p, Initial residual = 0.00444586, Final residual = 9.38294e-13, No Iterations 248
ExecutionTime = 1.67188 s  ClockTime = 1 s

Coats CFL Number mean: 0.000288805 max: 0.828954
deltaT = 0.000750738
Time = 0.00765921

diagonal:  Solving for Sb, Initial residual = 0, Final residual = 0, No Iterations 0
Saturation b:  Min(Sb) = 0.0011 Max(Sb) = 0.562116
DICPCG:  Solving for p, Initial residual = 0.00330413, Final residual = 8.63788e-13, No Iterations 253
ExecutionTime = 1.75 s  ClockTime = 2 s

Coats CFL Number mean: 0.000288092 max: 0.763697
deltaT = 0.000732863
Time = 0.00839208

diagonal:  Solving for Sb, Initial residual = 0, Final residual = 0, No Iterations 0
Saturation b:  Min(Sb) = 0.0011 Max(Sb) = 0.568257
DICPCG:  Solving for p, Initial residual = 0.00339347, Final residual = 8.24184e-13, No Iterations 252
ExecutionTime = 1.82812 s  ClockTime = 2 s

Coats CFL Number mean: 0.000275289 max: 0.639935
deltaT = 0.000817928
Time = 0.00921001

diagonal:  Solving for Sb, Initial residual = 0, Final residual = 0, No Iterations 0
Saturation b:  Min(Sb) = 0.0011 Max(Sb) = 0.57447
DICPCG:  Solving for p, Initial residual = 0.00417002, Final residual = 9.19445e-13, No Iterations 245
ExecutionTime = 1.90625 s  ClockTime = 2 s

Coats CFL Number mean: 0.000287243 max: 0.65037
deltaT = 0.0009079
Time = 0.0101179

diagonal:  Solving for Sb, Initial residual = 0, Final residual = 0, No Iterations 0
Saturation b:  Min(Sb) = 0.0011 Max(Sb) = 0.580712
DICPCG:  Solving for p, Initial residual = 0.00467408, Final residual = 8.87887e-13, No Iterations 251
ExecutionTime = 1.98438 s  ClockTime = 2 s

Coats CFL Number mean: 0.00031889 max: 0.609389
deltaT = 0.00100991
Time = 0.0111278

diagonal:  Solving for Sb, Initial residual = 0, Final residual = 0, No Iterations 0
Saturation b:  Min(Sb) = 0.0011 Max(Sb) = 0.586991
DICPCG:  Solving for p, Initial residual = 0.00451718, Final residual = 9.81899e-13, No Iterations 249
ExecutionTime = 2.0625 s  ClockTime = 2 s

Coats CFL Number mean: 0.000407024 max: 0.785982
deltaT = 0.000955615
Time = 0.0120834

diagonal:  Solving for Sb, Initial residual = 0, Final residual = 0, No Iterations 0
Saturation b:  Min(Sb) = 0.0011 Max(Sb) = 0.592356
DICPCG:  Solving for p, Initial residual = 0.00356059, Final residual = 8.22411e-13, No Iterations 250
ExecutionTime = 2.125 s  ClockTime = 2 s

Coats CFL Number mean: 0.000419393 max: 0.871253
deltaT = 0.00082165
Time = 0.0129051

diagonal:  Solving for Sb, Initial residual = 0, Final residual = 0, No Iterations 0
Saturation b:  Min(Sb) = 0.0011 Max(Sb) = 0.596583
DICPCG:  Solving for p, Initial residual = 0.00326896, Final residual = 8.78124e-13, No Iterations 250
ExecutionTime = 2.20312 s  ClockTime = 2 s

Coats CFL Number mean: 0.000367643 max: 0.676574
deltaT = 0.000907239
Time = 0.0138123

diagonal:  Solving for Sb, Initial residual = 0, Final residual = 0, No Iterations 0
Saturation b:  Min(Sb) = 0.0011 Max(Sb) = 0.600937
DICPCG:  Solving for p, Initial residual = 0.00351929, Final residual = 8.40712e-13, No Iterations 250
ExecutionTime = 2.28125 s  ClockTime = 2 s

Coats CFL Number mean: 0.000412448 max: 0.642132
deltaT = 0.00100218
Time = 0.0148145

diagonal:  Solving for Sb, Initial residual = 0, Final residual = 0, No Iterations 0
Saturation b:  Min(Sb) = 0.0011 Max(Sb) = 0.605415
DICPCG:  Solving for p, Initial residual = 0.00367435, Final residual = 9.56517e-13, No Iterations 234
ExecutionTime = 2.35938 s  ClockTime = 2 s

Coats CFL Number mean: 0.000474789 max: 0.628245
deltaT = 0.00112086
Time = 0.0159354

diagonal:  Solving for Sb, Initial residual = 0, Final residual = 0, No Iterations 0
Saturation b:  Min(Sb) = 0.0011 Max(Sb) = 0.610065
DICPCG:  Solving for p, Initial residual = 0.00386854, Final residual = 9.8333e-13, No Iterations 249
ExecutionTime = 2.42188 s  ClockTime = 2 s

Coats CFL Number mean: 0.000582003 max: 0.811183
deltaT = 0.00102518
Time = 0.0169605

diagonal:  Solving for Sb, Initial residual = 0, Final residual = 0, No Iterations 0
Saturation b:  Min(Sb) = 0.0011 Max(Sb) = 0.614002
DICPCG:  Solving for p, Initial residual = 0.00323841, Final residual = 7.91972e-13, No Iterations 243
ExecutionTime = 2.5 s  ClockTime = 2 s

Coats CFL Number mean: 0.000557047 max: 0.896423
deltaT = 0.000856077
Time = 0.0178166

diagonal:  Solving for Sb, Initial residual = 0, Final residual = 0, No Iterations 0
Saturation b:  Min(Sb) = 0.0011 Max(Sb) = 0.617081
DICPCG:  Solving for p, Initial residual = 0.00295925, Final residual = 8.6234e-13, No Iterations 239
ExecutionTime = 2.57812 s  ClockTime = 2 s

Coats CFL Number mean: 0.000462899 max: 0.686767
deltaT = 0.000933902
Time = 0.0187505

diagonal:  Solving for Sb, Initial residual = 0, Final residual = 0, No Iterations 0
Saturation b:  Min(Sb) = 0.0011 Max(Sb) = 0.62027
DICPCG:  Solving for p, Initial residual = 0.00332416, Final residual = 8.81661e-13, No Iterations 242
ExecutionTime = 2.64062 s  ClockTime = 2 s

Coats CFL Number mean: 0.000498065 max: 0.664637
deltaT = 0.00102847
Time = 0.019779

diagonal:  Solving for Sb, Initial residual = 0, Final residual = 0, No Iterations 0
Saturation b:  Min(Sb) = 0.0011 Max(Sb) = 0.623599
DICPCG:  Solving for p, Initial residual = 0.00361807, Final residual = 9.26922e-13, No Iterations 244
ExecutionTime = 2.71875 s  ClockTime = 3 s

Coats CFL Number mean: 0.000558802 max: 0.658052
deltaT = 0.00112987
Time = 0.0209089

diagonal:  Solving for Sb, Initial residual = 0, Final residual = 0, No Iterations 0
Saturation b:  Min(Sb) = 0.0011 Max(Sb) = 0.627057
DICPCG:  Solving for p, Initial residual = 0.00367302, Final residual = 9.48751e-13, No Iterations 243
ExecutionTime = 2.79688 s  ClockTime = 3 s

Coats CFL Number mean: 0.000672913 max: 0.80188
deltaT = 0.00105455
Time = 0.0219634

diagonal:  Solving for Sb, Initial residual = 0, Final residual = 0, No Iterations 0
Saturation b:  Min(Sb) = 0.0011 Max(Sb) = 0.6301
DICPCG:  Solving for p, Initial residual = 0.00293438, Final residual = 9.04969e-13, No Iterations 248
ExecutionTime = 2.875 s  ClockTime = 3 s

Coats CFL Number mean: 0.000678653 max: 0.921338
deltaT = 0.000857545
Time = 0.022821

diagonal:  Solving for Sb, Initial residual = 0, Final residual = 0, No Iterations 0
Saturation b:  Min(Sb) = 0.0011 Max(Sb) = 0.63245
DICPCG:  Solving for p, Initial residual = 0.00236172, Final residual = 9.63208e-13, No Iterations 245
ExecutionTime = 2.95312 s  ClockTime = 3 s

Coats CFL Number mean: 0.000567531 max: 0.700233
deltaT = 0.000907989
Time = 0.023729

diagonal:  Solving for Sb, Initial residual = 0, Final residual = 0, No Iterations 0
Saturation b:  Min(Sb) = 0.0011 Max(Sb) = 0.63484
DICPCG:  Solving for p, Initial residual = 0.00254119, Final residual = 9.86762e-13, No Iterations 246
ExecutionTime = 3.03125 s  ClockTime = 3 s

Coats CFL Number mean: 0.000606671 max: 0.672964
deltaT = 0.00100357
Time = 0.0247325

diagonal:  Solving for Sb, Initial residual = 0, Final residual = 0, No Iterations 0
Saturation b:  Min(Sb) = 0.0011 Max(Sb) = 0.637376
DICPCG:  Solving for p, Initial residual = 0.00286276, Final residual = 9.32184e-13, No Iterations 241
ExecutionTime = 3.10938 s  ClockTime = 3 s

Coats CFL Number mean: 0.000671933 max: 0.661626
deltaT = 0.00110687
Time = 0.0258394

diagonal:  Solving for Sb, Initial residual = 0, Final residual = 0, No Iterations 0
Saturation b:  Min(Sb) = 0.0011 Max(Sb) = 0.640054
DICPCG:  Solving for p, Initial residual = 0.00321302, Final residual = 9.27133e-13, No Iterations 249
ExecutionTime = 3.1875 s  ClockTime = 3 s

Coats CFL Number mean: 0.000758859 max: 0.701441
deltaT = 0.00117715
Time = 0.0270165

diagonal:  Solving for Sb, Initial residual = 0, Final residual = 0, No Iterations 0
Saturation b:  Min(Sb) = 0.0011 Max(Sb) = 0.642773
DICPCG:  Solving for p, Initial residual = 0.00321877, Final residual = 8.72041e-13, No Iterations 250
ExecutionTime = 3.26562 s  ClockTime = 3 s

Coats CFL Number mean: 0.000853073 max: 0.757609
deltaT = 0.00115847
Time = 0.028175

diagonal:  Solving for Sb, Initial residual = 0, Final residual = 0, No Iterations 0
Saturation b:  Min(Sb) = 0.0011 Max(Sb) = 0.645326
DICPCG:  Solving for p, Initial residual = 0.00295619, Final residual = 9.68297e-13, No Iterations 244
ExecutionTime = 3.32812 s  ClockTime = 3 s

Coats CFL Number mean: 0.000862652 max: 0.918047
deltaT = 0.000945066
Time = 0.0291201

diagonal:  Solving for Sb, Initial residual = 0, Final residual = 0, No Iterations 0
Saturation b:  Min(Sb) = 0.0011 Max(Sb) = 0.647319
DICPCG:  Solving for p, Initial residual = 0.00259741, Final residual = 9.90652e-13, No Iterations 242
ExecutionTime = 3.40625 s  ClockTime = 3 s

Coats CFL Number mean: 0.000706895 max: 0.710714
deltaT = 0.000984443
Time = 0.0301045

diagonal:  Solving for Sb, Initial residual = 0, Final residual = 0, No Iterations 0
Saturation b:  Min(Sb) = 0.0011 Max(Sb) = 0.649323
DICPCG:  Solving for p, Initial residual = 0.00275341, Final residual = 9.58956e-13, No Iterations 245
ExecutionTime = 3.46875 s  ClockTime = 3 s

Coats CFL Number mean: 0.000737947 max: 0.663517
deltaT = 0.00109212
Time = 0.0311966

diagonal:  Solving for Sb, Initial residual = 0, Final residual = 0, No Iterations 0
Saturation b:  Min(Sb) = 0.0011 Max(Sb) = 0.651471
DICPCG:  Solving for p, Initial residual = 0.0029752, Final residual = 8.88253e-13, No Iterations 243
ExecutionTime = 3.54688 s  ClockTime = 3 s

Coats CFL Number mean: 0.000827436 max: 0.712261
deltaT = 0.00114672
Time = 0.0323434

diagonal:  Solving for Sb, Initial residual = 0, Final residual = 0, No Iterations 0
Saturation b:  Min(Sb) = 0.0011 Max(Sb) = 0.653643
DICPCG:  Solving for p, Initial residual = 0.00293486, Final residual = 9.24454e-13, No Iterations 244
ExecutionTime = 3.625 s  ClockTime = 3 s

Coats CFL Number mean: 0.00090078 max: 0.698163
deltaT = 0.00120815
Time = 0.0335515

diagonal:  Solving for Sb, Initial residual = 0, Final residual = 0, No Iterations 0
Saturation b:  Min(Sb) = 0.0011 Max(Sb) = 0.655845
DICPCG:  Solving for p, Initial residual = 0.00275514, Final residual = 8.68599e-13, No Iterations 243
ExecutionTime = 3.70312 s  ClockTime = 3 s

Coats CFL Number mean: 0.00100797 max: 0.650366
deltaT = 0.00120815
Time = 0.0347597

diagonal:  Solving for Sb, Initial residual = 0, Final residual = 0, No Iterations 0
Saturation b:  Min(Sb) = 0.0011 Max(Sb) = 0.657964
DICPCG:  Solving for p, Initial residual = 0.00251218, Final residual = 8.27762e-13, No Iterations 242
ExecutionTime = 3.76562 s  ClockTime = 4 s

Coats CFL Number mean: 0.00105515 max: 0.76405
deltaT = 0.00116501
Time = 0.0359247

diagonal:  Solving for Sb, Initial residual = 0, Final residual = 0, No Iterations 0
Saturation b:  Min(Sb) = 0.0011 Max(Sb) = 0.659932
DICPCG:  Solving for p, Initial residual = 0.00270163, Final residual = 8.97848e-13, No Iterations 245
ExecutionTime = 3.84375 s  ClockTime = 4 s

Coats CFL Number mean: 0.00102418 max: 0.784284
deltaT = 0.00110475
Time = 0.0370294

diagonal:  Solving for Sb, Initial residual = 0, Final residual = 0, No Iterations 0
Saturation b:  Min(Sb) = 0.0011 Max(Sb) = 0.661734
DICPCG:  Solving for p, Initial residual = 0.00274014, Final residual = 9.56237e-13, No Iterations 239
ExecutionTime = 3.92188 s  ClockTime = 4 s

Coats CFL Number mean: 0.000961702 max: 0.742048
deltaT = 0.00110475
Time = 0.0381342

diagonal:  Solving for Sb, Initial residual = 0, Final residual = 0, No Iterations 0
Saturation b:  Min(Sb) = 0.0011 Max(Sb) = 0.663479
DICPCG:  Solving for p, Initial residual = 0.0027362, Final residual = 8.64747e-13, No Iterations 242
ExecutionTime = 3.98438 s  ClockTime = 4 s

Coats CFL Number mean: 0.000957992 max: 0.682987
deltaT = 0.00121306
Time = 0.0393472

diagonal:  Solving for Sb, Initial residual = 0, Final residual = 0, No Iterations 0
Saturation b:  Min(Sb) = 0.0011 Max(Sb) = 0.665336
DICPCG:  Solving for p, Initial residual = 0.00301986, Final residual = 8.68984e-13, No Iterations 248
ExecutionTime = 4.0625 s  ClockTime = 4 s

Coats CFL Number mean: 0.00106555 max: 0.667036
deltaT = 0.00121306
Time = 0.0405603

diagonal:  Solving for Sb, Initial residual = 0, Final residual = 0, No Iterations 0
Saturation b:  Min(Sb) = 0.0011 Max(Sb) = 0.667133
DICPCG:  Solving for p, Initial residual = 0.00288007, Final residual = 9.4871e-13, No Iterations 248
ExecutionTime = 4.14062 s  ClockTime = 4 s

Coats CFL Number mean: 0.00110596 max: 0.691334
deltaT = 0.00121306
Time = 0.0417733

diagonal:  Solving for Sb, Initial residual = 0, Final residual = 0, No Iterations 0
Saturation b:  Min(Sb) = 0.0011 Max(Sb) = 0.668873
DICPCG:  Solving for p, Initial residual = 0.0025694, Final residual = 8.37421e-13, No Iterations 244
ExecutionTime = 4.21875 s  ClockTime = 4 s

Coats CFL Number mean: 0.00116187 max: 0.667079
deltaT = 0.00121306
Time = 0.0429864

diagonal:  Solving for Sb, Initial residual = 0, Final residual = 0, No Iterations 0
Saturation b:  Min(Sb) = 0.0011 Max(Sb) = 0.67056
DICPCG:  Solving for p, Initial residual = 0.00243641, Final residual = 8.45584e-13, No Iterations 246
ExecutionTime = 4.28125 s  ClockTime = 4 s

Coats CFL Number mean: 0.00120386 max: 0.696223
deltaT = 0.00121306
Time = 0.0441994

diagonal:  Solving for Sb, Initial residual = 0, Final residual = 0, No Iterations 0
Saturation b:  Min(Sb) = 0.0011 Max(Sb) = 0.672196
DICPCG:  Solving for p, Initial residual = 0.00244688, Final residual = 7.72673e-13, No Iterations 243
ExecutionTime = 4.35938 s  ClockTime = 4 s

Coats CFL Number mean: 0.00122259 max: 0.684528
deltaT = 0.00121306
Time = 0.0454125

diagonal:  Solving for Sb, Initial residual = 0, Final residual = 0, No Iterations 0
Saturation b:  Min(Sb) = 0.0011 Max(Sb) = 0.673784
DICPCG:  Solving for p, Initial residual = 0.00256225, Final residual = 9.50728e-13, No Iterations 239
ExecutionTime = 4.4375 s  ClockTime = 4 s

Coats CFL Number mean: 0.00122206 max: 0.71111
deltaT = 0.00121306
Time = 0.0466256

diagonal:  Solving for Sb, Initial residual = 0, Final residual = 0, No Iterations 0
Saturation b:  Min(Sb) = 0.0011 Max(Sb) = 0.675327
DICPCG:  Solving for p, Initial residual = 0.00269001, Final residual = 9.44702e-13, No Iterations 244
ExecutionTime = 4.5 s  ClockTime = 4 s

Coats CFL Number mean: 0.00121864 max: 0.725577
deltaT = 0.00121306
Time = 0.0478386

diagonal:  Solving for Sb, Initial residual = 0, Final residual = 0, No Iterations 0
Saturation b:  Min(Sb) = 0.0011 Max(Sb) = 0.676828
DICPCG:  Solving for p, Initial residual = 0.00268564, Final residual = 9.84923e-13, No Iterations 249
ExecutionTime = 4.57812 s  ClockTime = 4 s

Coats CFL Number mean: 0.00123266 max: 0.677914
deltaT = 0.00121306
Time = 0.0490517

diagonal:  Solving for Sb, Initial residual = 0, Final residual = 0, No Iterations 0
Saturation b:  Min(Sb) = 0.0011 Max(Sb) = 0.678288
DICPCG:  Solving for p, Initial residual = 0.00255061, Final residual = 9.04217e-13, No Iterations 249
ExecutionTime = 4.65625 s  ClockTime = 4 s

Coats CFL Number mean: 0.0012677 max: 0.614138
deltaT = 0.00121306
Time = 0.0502647

diagonal:  Solving for Sb, Initial residual = 0, Final residual = 0, No Iterations 0
Saturation b:  Min(Sb) = 0.0011 Max(Sb) = 0.679709
DICPCG:  Solving for p, Initial residual = 0.00245366, Final residual = 9.69347e-13, No Iterations 243
ExecutionTime = 4.73438 s  ClockTime = 5 s

Coats CFL Number mean: 0.00130582 max: 0.609098
deltaT = 0.00121306
Time = 0.0514778

diagonal:  Solving for Sb, Initial residual = 0, Final residual = 0, No Iterations 0
Saturation b:  Min(Sb) = 0.0011 Max(Sb) = 0.681095
DICPCG:  Solving for p, Initial residual = 0.0024405, Final residual = 7.90577e-13, No Iterations 243
ExecutionTime = 4.8125 s  ClockTime = 5 s

Coats CFL Number mean: 0.00133152 max: 0.650281
deltaT = 0.00121306
Time = 0.0526908

diagonal:  Solving for Sb, Initial residual = 0, Final residual = 0, No Iterations 0
Saturation b:  Min(Sb) = 0.0011 Max(Sb) = 0.682445
DICPCG:  Solving for p, Initial residual = 0.00249431, Final residual = 8.38402e-13, No Iterations 243
ExecutionTime = 4.89062 s  ClockTime = 5 s

Coats CFL Number mean: 0.00134637 max: 0.620467
deltaT = 0.00121306
Time = 0.0539039

diagonal:  Solving for Sb, Initial residual = 0, Final residual = 0, No Iterations 0
Saturation b:  Min(Sb) = 0.0011 Max(Sb) = 0.683762
DICPCG:  Solving for p, Initial residual = 0.00249167, Final residual = 9.47953e-13, No Iterations 245
ExecutionTime = 4.95312 s  ClockTime = 5 s

Coats CFL Number mean: 0.00136081 max: 0.630146
deltaT = 0.00121306
Time = 0.0551169

diagonal:  Solving for Sb, Initial residual = 0, Final residual = 0, No Iterations 0
Saturation b:  Min(Sb) = 0.0011 Max(Sb) = 0.685048
DICPCG:  Solving for p, Initial residual = 0.00242677, Final residual = 8.46141e-13, No Iterations 242
ExecutionTime = 5.03125 s  ClockTime = 5 s

Coats CFL Number mean: 0.00137835 max: 0.59649
deltaT = 0.00121306
Time = 0.05633

diagonal:  Solving for Sb, Initial residual = 0, Final residual = 0, No Iterations 0
Saturation b:  Min(Sb) = 0.0011 Max(Sb) = 0.686303
DICPCG:  Solving for p, Initial residual = 0.00235484, Final residual = 8.89337e-13, No Iterations 244
ExecutionTime = 5.10938 s  ClockTime = 5 s

Coats CFL Number mean: 0.00139993 max: 0.658286
deltaT = 0.00121306
Time = 0.0575431

diagonal:  Solving for Sb, Initial residual = 0, Final residual = 0, No Iterations 0
Saturation b:  Min(Sb) = 0.0011 Max(Sb) = 0.68753
DICPCG:  Solving for p, Initial residual = 0.00229079, Final residual = 8.72868e-13, No Iterations 246
ExecutionTime = 5.1875 s  ClockTime = 5 s

Coats CFL Number mean: 0.00143139 max: 0.660527
deltaT = 0.00121306
Time = 0.0587561

diagonal:  Solving for Sb, Initial residual = 0, Final residual = 0, No Iterations 0
Saturation b:  Min(Sb) = 0.0011 Max(Sb) = 0.688729
DICPCG:  Solving for p, Initial residual = 0.00220526, Final residual = 9.37088e-13, No Iterations 248
ExecutionTime = 5.25 s  ClockTime = 5 s

Coats CFL Number mean: 0.00146878 max: 0.618987
deltaT = 0.00121306
Time = 0.0599692

diagonal:  Solving for Sb, Initial residual = 0, Final residual = 0, No Iterations 0
Saturation b:  Min(Sb) = 0.0011 Max(Sb) = 0.689902
DICPCG:  Solving for p, Initial residual = 0.002201, Final residual = 8.80781e-13, No Iterations 246
ExecutionTime = 5.34375 s  ClockTime = 5 s

Coats CFL Number mean: 0.00149807 max: 0.602812
deltaT = 0.00121306
Time = 0.0611822

diagonal:  Solving for Sb, Initial residual = 0, Final residual = 0, No Iterations 0
Saturation b:  Min(Sb) = 0.0011 Max(Sb) = 0.691049
DICPCG:  Solving for p, Initial residual = 0.0022635, Final residual = 8.98197e-13, No Iterations 247
ExecutionTime = 5.40625 s  ClockTime = 5 s

Coats CFL Number mean: 0.00151248 max: 0.60123
deltaT = 0.00121306
Time = 0.0623953

diagonal:  Solving for Sb, Initial residual = 0, Final residual = 0, No Iterations 0
Saturation b:  Min(Sb) = 0.0011 Max(Sb) = 0.692172
DICPCG:  Solving for p, Initial residual = 0.00238642, Final residual = 9.52105e-13, No Iterations 245
ExecutionTime = 5.48438 s  ClockTime = 5 s

Coats CFL Number mean: 0.00151579 max: 0.593921
deltaT = 0.00121306
Time = 0.0636083

diagonal:  Solving for Sb, Initial residual = 0, Final residual = 0, No Iterations 0
Saturation b:  Min(Sb) = 0.0011 Max(Sb) = 0.693271
DICPCG:  Solving for p, Initial residual = 0.00245082, Final residual = 9.48441e-13, No Iterations 247
ExecutionTime = 5.5625 s  ClockTime = 5 s

Coats CFL Number mean: 0.00151844 max: 0.575288
deltaT = 0.00121306
Time = 0.0648214

diagonal:  Solving for Sb, Initial residual = 0, Final residual = 0, No Iterations 0
Saturation b:  Min(Sb) = 0.0011 Max(Sb) = 0.694349
DICPCG:  Solving for p, Initial residual = 0.0024025, Final residual = 9.45678e-13, No Iterations 246
ExecutionTime = 5.625 s  ClockTime = 5 s

Coats CFL Number mean: 0.00153246 max: 0.58928
deltaT = 0.00121306
Time = 0.0660344

diagonal:  Solving for Sb, Initial residual = 0, Final residual = 0, No Iterations 0
Saturation b:  Min(Sb) = 0.0011 Max(Sb) = 0.695404
DICPCG:  Solving for p, Initial residual = 0.00235095, Final residual = 8.35574e-13, No Iterations 244
ExecutionTime = 5.70312 s  ClockTime = 5 s

Coats CFL Number mean: 0.00156199 max: 0.563122
deltaT = 0.00121306
Time = 0.0672475

diagonal:  Solving for Sb, Initial residual = 0, Final residual = 0, No Iterations 0
Saturation b:  Min(Sb) = 0.0011 Max(Sb) = 0.696439
DICPCG:  Solving for p, Initial residual = 0.00219824, Final residual = 8.96294e-13, No Iterations 243
ExecutionTime = 5.78125 s  ClockTime = 6 s

Coats CFL Number mean: 0.00160096 max: 0.598696
deltaT = 0.00121306
Time = 0.0684606

diagonal:  Solving for Sb, Initial residual = 0, Final residual = 0, No Iterations 0
Saturation b:  Min(Sb) = 0.0011 Max(Sb) = 0.697454
DICPCG:  Solving for p, Initial residual = 0.0020627, Final residual = 9.05901e-13, No Iterations 244
ExecutionTime = 5.84375 s  ClockTime = 6 s

Coats CFL Number mean: 0.00163906 max: 0.625467
deltaT = 0.00121306
Time = 0.0696736

diagonal:  Solving for Sb, Initial residual = 0, Final residual = 0, No Iterations 0
Saturation b:  Min(Sb) = 0.0011 Max(Sb) = 0.698449
DICPCG:  Solving for p, Initial residual = 0.0020175, Final residual = 9.21692e-13, No Iterations 241
ExecutionTime = 5.92188 s  ClockTime = 6 s

Coats CFL Number mean: 0.00166878 max: 0.600683
deltaT = 0.00121306
Time = 0.0708867

diagonal:  Solving for Sb, Initial residual = 0, Final residual = 0, No Iterations 0
Saturation b:  Min(Sb) = 0.0011 Max(Sb) = 0.699426
DICPCG:  Solving for p, Initial residual = 0.00211052, Final residual = 7.61659e-13, No Iterations 242
ExecutionTime = 6 s  ClockTime = 6 s

Coats CFL Number mean: 0.00168846 max: 0.570797
deltaT = 0.00121306
Time = 0.0720997

diagonal:  Solving for Sb, Initial residual = 0, Final residual = 0, No Iterations 0
Saturation b:  Min(Sb) = 0.0011 Max(Sb) = 0.700385
DICPCG:  Solving for p, Initial residual = 0.00217326, Final residual = 8.54633e-13, No Iterations 242
ExecutionTime = 6.0625 s  ClockTime = 6 s

Coats CFL Number mean: 0.00169945 max: 0.570401
deltaT = 0.00121306
Time = 0.0733128

diagonal:  Solving for Sb, Initial residual = 0, Final residual = 0, No Iterations 0
Saturation b:  Min(Sb) = 0.0011 Max(Sb) = 0.701326
DICPCG:  Solving for p, Initial residual = 0.00221811, Final residual = 8.63373e-13, No Iterations 248
ExecutionTime = 6.14062 s  ClockTime = 6 s

Coats CFL Number mean: 0.00170459 max: 0.567044
deltaT = 0.00121306
Time = 0.0745258

diagonal:  Solving for Sb, Initial residual = 0, Final residual = 0, No Iterations 0
Saturation b:  Min(Sb) = 0.0011 Max(Sb) = 0.702251
DICPCG:  Solving for p, Initial residual = 0.00230358, Final residual = 9.59959e-13, No Iterations 243
ExecutionTime = 6.21875 s  ClockTime = 6 s

Coats CFL Number mean: 0.00171058 max: 0.545941
deltaT = 0.00121306
Time = 0.0757389

diagonal:  Solving for Sb, Initial residual = 0, Final residual = 0, No Iterations 0
Saturation b:  Min(Sb) = 0.0011 Max(Sb) = 0.70316
DICPCG:  Solving for p, Initial residual = 0.00229949, Final residual = 8.66787e-13, No Iterations 249
ExecutionTime = 6.29688 s  ClockTime = 6 s

Coats CFL Number mean: 0.00172875 max: 0.565943
deltaT = 0.00121306
Time = 0.0769519

diagonal:  Solving for Sb, Initial residual = 0, Final residual = 0, No Iterations 0
Saturation b:  Min(Sb) = 0.0011 Max(Sb) = 0.704053
DICPCG:  Solving for p, Initial residual = 0.00221257, Final residual = 9.51407e-13, No Iterations 248
ExecutionTime = 6.35938 s  ClockTime = 6 s

Coats CFL Number mean: 0.00176404 max: 0.555482
deltaT = 0.00121306
Time = 0.078165

diagonal:  Solving for Sb, Initial residual = 0, Final residual = 0, No Iterations 0
Saturation b:  Min(Sb) = 0.0011 Max(Sb) = 0.704931
DICPCG:  Solving for p, Initial residual = 0.00209566, Final residual = 9.87309e-13, No Iterations 244
ExecutionTime = 6.4375 s  ClockTime = 6 s

Coats CFL Number mean: 0.00180632 max: 0.521965
deltaT = 0.00121306
Time = 0.0793781

diagonal:  Solving for Sb, Initial residual = 0, Final residual = 0, No Iterations 0
Saturation b:  Min(Sb) = 0.0011 Max(Sb) = 0.705794
DICPCG:  Solving for p, Initial residual = 0.00200773, Final residual = 8.30215e-13, No Iterations 245
ExecutionTime = 6.51562 s  ClockTime = 6 s

Coats CFL Number mean: 0.00184161 max: 0.591328
deltaT = 0.00121306
Time = 0.0805911

diagonal:  Solving for Sb, Initial residual = 0, Final residual = 0, No Iterations 0
Saturation b:  Min(Sb) = 0.0011 Max(Sb) = 0.706643
DICPCG:  Solving for p, Initial residual = 0.00200016, Final residual = 9.77797e-13, No Iterations 243
ExecutionTime = 6.57812 s  ClockTime = 6 s

Coats CFL Number mean: 0.00186644 max: 0.596926
deltaT = 0.00121306
Time = 0.0818042

diagonal:  Solving for Sb, Initial residual = 0, Final residual = 0, No Iterations 0
Saturation b:  Min(Sb) = 0.0011 Max(Sb) = 0.707478
DICPCG:  Solving for p, Initial residual = 0.00201121, Final residual = 8.90774e-13, No Iterations 244
ExecutionTime = 6.65625 s  ClockTime = 6 s

Coats CFL Number mean: 0.00188346 max: 0.568053
deltaT = 0.00121306
Time = 0.0830172

diagonal:  Solving for Sb, Initial residual = 0, Final residual = 0, No Iterations 0
Saturation b:  Min(Sb) = 0.0011 Max(Sb) = 0.7083
DICPCG:  Solving for p, Initial residual = 0.00203251, Final residual = 9.57663e-13, No Iterations 245
ExecutionTime = 6.73438 s  ClockTime = 7 s

Coats CFL Number mean: 0.00189513 max: 0.541878
deltaT = 0.00121306
Time = 0.0842303

diagonal:  Solving for Sb, Initial residual = 0, Final residual = 0, No Iterations 0
Saturation b:  Min(Sb) = 0.0011 Max(Sb) = 0.709109
DICPCG:  Solving for p, Initial residual = 0.00210789, Final residual = 9.02101e-13, No Iterations 247
ExecutionTime = 6.8125 s  ClockTime = 7 s

Coats CFL Number mean: 0.00190353 max: 0.557248
deltaT = 0.00121306
Time = 0.0854433

diagonal:  Solving for Sb, Initial residual = 0, Final residual = 0, No Iterations 0
Saturation b:  Min(Sb) = 0.0011 Max(Sb) = 0.709906
DICPCG:  Solving for p, Initial residual = 0.00215473, Final residual = 8.53174e-13, No Iterations 249
ExecutionTime = 6.875 s  ClockTime = 7 s

Coats CFL Number mean: 0.00191264 max: 0.537526
deltaT = 0.00121306
Time = 0.0866564

diagonal:  Solving for Sb, Initial residual = 0, Final residual = 0, No Iterations 0
Saturation b:  Min(Sb) = 0.0011 Max(Sb) = 0.71069
DICPCG:  Solving for p, Initial residual = 0.00217851, Final residual = 9.76824e-13, No Iterations 245
ExecutionTime = 6.95312 s  ClockTime = 7 s

Coats CFL Number mean: 0.00193068 max: 0.539897
deltaT = 0.00121306
Time = 0.0878694

diagonal:  Solving for Sb, Initial residual = 0, Final residual = 0, No Iterations 0
Saturation b:  Min(Sb) = 0.0011 Max(Sb) = 0.711462
DICPCG:  Solving for p, Initial residual = 0.00215935, Final residual = 9.96693e-13, No Iterations 244
ExecutionTime = 7.03125 s  ClockTime = 7 s

Coats CFL Number mean: 0.00196335 max: 0.554354
deltaT = 0.00121306
Time = 0.0890825

diagonal:  Solving for Sb, Initial residual = 0, Final residual = 0, No Iterations 0
Saturation b:  Min(Sb) = 0.0011 Max(Sb) = 0.712223
DICPCG:  Solving for p, Initial residual = 0.00205208, Final residual = 8.96594e-13, No Iterations 248
ExecutionTime = 7.10938 s  ClockTime = 7 s

Coats CFL Number mean: 0.00200412 max: 0.534562
deltaT = 0.00121306
Time = 0.0902956

diagonal:  Solving for Sb, Initial residual = 0, Final residual = 0, No Iterations 0
Saturation b:  Min(Sb) = 0.0011 Max(Sb) = 0.712973
DICPCG:  Solving for p, Initial residual = 0.00199334, Final residual = 9.68148e-13, No Iterations 242
ExecutionTime = 7.17188 s  ClockTime = 7 s

Coats CFL Number mean: 0.00203881 max: 0.533067
deltaT = 0.00121306
Time = 0.0915086

diagonal:  Solving for Sb, Initial residual = 0, Final residual = 0, No Iterations 0
Saturation b:  Min(Sb) = 0.0011 Max(Sb) = 0.713712
DICPCG:  Solving for p, Initial residual = 0.00200238, Final residual = 9.635e-13, No Iterations 243
ExecutionTime = 7.25 s  ClockTime = 7 s

Coats CFL Number mean: 0.00206232 max: 0.585434
deltaT = 0.00121306
Time = 0.0927217

diagonal:  Solving for Sb, Initial residual = 0, Final residual = 0, No Iterations 0
Saturation b:  Min(Sb) = 0.0011 Max(Sb) = 0.71444
DICPCG:  Solving for p, Initial residual = 0.00201916, Final residual = 9.08294e-13, No Iterations 244
ExecutionTime = 7.32812 s  ClockTime = 7 s

Coats CFL Number mean: 0.00207988 max: 0.581822
deltaT = 0.00121306
Time = 0.0939347

diagonal:  Solving for Sb, Initial residual = 0, Final residual = 0, No Iterations 0
Saturation b:  Min(Sb) = 0.0011 Max(Sb) = 0.715158
DICPCG:  Solving for p, Initial residual = 0.00201437, Final residual = 8.34661e-13, No Iterations 245
ExecutionTime = 7.40625 s  ClockTime = 7 s

Coats CFL Number mean: 0.00209632 max: 0.55222
deltaT = 0.00121306
Time = 0.0951478

diagonal:  Solving for Sb, Initial residual = 0, Final residual = 0, No Iterations 0
Saturation b:  Min(Sb) = 0.0011 Max(Sb) = 0.715865
DICPCG:  Solving for p, Initial residual = 0.00198334, Final residual = 9.2184e-13, No Iterations 243
ExecutionTime = 7.48438 s  ClockTime = 7 s

Coats CFL Number mean: 0.00211297 max: 0.54911
deltaT = 0.00121306
Time = 0.0963608

diagonal:  Solving for Sb, Initial residual = 0, Final residual = 0, No Iterations 0
Saturation b:  Min(Sb) = 0.0011 Max(Sb) = 0.716564
DICPCG:  Solving for p, Initial residual = 0.00200656, Final residual = 9.52045e-13, No Iterations 246
ExecutionTime = 7.54688 s  ClockTime = 7 s

Coats CFL Number mean: 0.00212964 max: 0.54655
deltaT = 0.00121306
Time = 0.0975739

diagonal:  Solving for Sb, Initial residual = 0, Final residual = 0, No Iterations 0
Saturation b:  Min(Sb) = 0.0011 Max(Sb) = 0.717252
DICPCG:  Solving for p, Initial residual = 0.0020505, Final residual = 9.30905e-13, No Iterations 248
ExecutionTime = 7.625 s  ClockTime = 7 s

Coats CFL Number mean: 0.002149 max: 0.527945
deltaT = 0.00121306
Time = 0.0987869

diagonal:  Solving for Sb, Initial residual = 0, Final residual = 0, No Iterations 0
Saturation b:  Min(Sb) = 0.0011 Max(Sb) = 0.717931
DICPCG:  Solving for p, Initial residual = 0.00205181, Final residual = 9.41379e-13, No Iterations 248
ExecutionTime = 7.70312 s  ClockTime = 7 s

Coats CFL Number mean: 0.00217657 max: 0.547927
deltaT = 0.00121306
Time = 0.1

diagonal:  Solving for Sb, Initial residual = 0, Final residual = 0, No Iterations 0
Saturation b:  Min(Sb) = 0.0011 Max(Sb) = 0.718602
DICPCG:  Solving for p, Initial residual = 0.00201637, Final residual = 7.57331e-13, No Iterations 245
ExecutionTime = 7.85938 s  ClockTime = 8 s

Coats CFL Number mean: 0.00221232 max: 0.548214
deltaT = 0.00121951
Time = 0.10122

diagonal:  Solving for Sb, Initial residual = 0, Final residual = 0, No Iterations 0
Saturation b:  Min(Sb) = 0.0011 Max(Sb) = 0.719267
DICPCG:  Solving for p, Initial residual = 0.00199976, Final residual = 8.15754e-13, No Iterations 245
ExecutionTime = 7.95312 s  ClockTime = 8 s

Coats CFL Number mean: 0.00225896 max: 0.524707
deltaT = 0.00121951
Time = 0.102439

diagonal:  Solving for Sb, Initial residual = 0, Final residual = 0, No Iterations 0
Saturation b:  Min(Sb) = 0.0011 Max(Sb) = 0.719923
DICPCG:  Solving for p, Initial residual = 0.00200079, Final residual = 9.41215e-13, No Iterations 243
ExecutionTime = 8.0625 s  ClockTime = 8 s

Coats CFL Number mean: 0.00228394 max: 0.557226
deltaT = 0.00121951
Time = 0.103659

diagonal:  Solving for Sb, Initial residual = 0, Final residual = 0, No Iterations 0
Saturation b:  Min(Sb) = 0.0011 Max(Sb) = 0.720571
DICPCG:  Solving for p, Initial residual = 0.00201296, Final residual = 8.95143e-13, No Iterations 244
ExecutionTime = 8.15625 s  ClockTime = 8 s

Coats CFL Number mean: 0.00230102 max: 0.590129
deltaT = 0.00121951
Time = 0.104878

diagonal:  Solving for Sb, Initial residual = 0, Final residual = 0, No Iterations 0
Saturation b:  Min(Sb) = 0.0011 Max(Sb) = 0.72121
DICPCG:  Solving for p, Initial residual = 0.0020572, Final residual = 8.0139e-13, No Iterations 243
ExecutionTime = 8.23438 s  ClockTime = 8 s

Coats CFL Number mean: 0.00231767 max: 0.577019
deltaT = 0.00121951
Time = 0.106098

diagonal:  Solving for Sb, Initial residual = 0, Final residual = 0, No Iterations 0
Saturation b:  Min(Sb) = 0.0011 Max(Sb) = 0.721842
DICPCG:  Solving for p, Initial residual = 0.00200359, Final residual = 9.70286e-13, No Iterations 246
ExecutionTime = 8.32812 s  ClockTime = 8 s

Coats CFL Number mean: 0.00233836 max: 0.545263
deltaT = 0.00121951
Time = 0.107317

diagonal:  Solving for Sb, Initial residual = 0, Final residual = 0, No Iterations 0
Saturation b:  Min(Sb) = 0.0011 Max(Sb) = 0.722465
DICPCG:  Solving for p, Initial residual = 0.0019768, Final residual = 9.25472e-13, No Iterations 241
ExecutionTime = 8.40625 s  ClockTime = 8 s

Coats CFL Number mean: 0.00236293 max: 0.557718
deltaT = 0.00121951
Time = 0.108537

diagonal:  Solving for Sb, Initial residual = 0, Final residual = 0, No Iterations 0
Saturation b:  Min(Sb) = 0.0011 Max(Sb) = 0.723081
DICPCG:  Solving for p, Initial residual = 0.00195361, Final residual = 9.6337e-13, No Iterations 247
ExecutionTime = 8.5 s  ClockTime = 8 s

Coats CFL Number mean: 0.00238929 max: 0.540539
deltaT = 0.00121951
Time = 0.109756

diagonal:  Solving for Sb, Initial residual = 0, Final residual = 0, No Iterations 0
Saturation b:  Min(Sb) = 0.0011 Max(Sb) = 0.723689
DICPCG:  Solving for p, Initial residual = 0.00197182, Final residual = 9.00133e-13, No Iterations 248
ExecutionTime = 8.57812 s  ClockTime = 8 s

Coats CFL Number mean: 0.00241824 max: 0.542282
deltaT = 0.00121951
Time = 0.110976

diagonal:  Solving for Sb, Initial residual = 0, Final residual = 0, No Iterations 0
Saturation b:  Min(Sb) = 0.0011 Max(Sb) = 0.72429
DICPCG:  Solving for p, Initial residual = 0.00199013, Final residual = 9.19423e-13, No Iterations 248
ExecutionTime = 8.65625 s  ClockTime = 8 s

Coats CFL Number mean: 0.0024516 max: 0.560726
deltaT = 0.00121951
Time = 0.112195

diagonal:  Solving for Sb, Initial residual = 0, Final residual = 0, No Iterations 0
Saturation b:  Min(Sb) = 0.0011 Max(Sb) = 0.724884
DICPCG:  Solving for p, Initial residual = 0.00197688, Final residual = 8.6154e-13, No Iterations 248
ExecutionTime = 8.75 s  ClockTime = 9 s

Coats CFL Number mean: 0.00248595 max: 0.545238
deltaT = 0.00121951
Time = 0.113415

diagonal:  Solving for Sb, Initial residual = 0, Final residual = 0, No Iterations 0
Saturation b:  Min(Sb) = 0.0011 Max(Sb) = 0.725471
DICPCG:  Solving for p, Initial residual = 0.00198355, Final residual = 8.38165e-13, No Iterations 244
ExecutionTime = 8.82812 s  ClockTime = 9 s

Coats CFL Number mean: 0.00251263 max: 0.537392
deltaT = 0.00121951
Time = 0.114634

diagonal:  Solving for Sb, Initial residual = 0, Final residual = 0, No Iterations 0
Saturation b:  Min(Sb) = 0.0011 Max(Sb) = 0.726051
DICPCG:  Solving for p, Initial residual = 0.00198795, Final residual = 9.27588e-13, No Iterations 244
ExecutionTime = 8.90625 s  ClockTime = 9 s

Coats CFL Number mean: 0.00252837 max: 0.586782
deltaT = 0.00121951
Time = 0.115854

diagonal:  Solving for Sb, Initial residual = 0, Final residual = 0, No Iterations 0
Saturation b:  Min(Sb) = 0.0011 Max(Sb) = 0.726624
DICPCG:  Solving for p, Initial residual = 0.00206397, Final residual = 8.30278e-13, No Iterations 240
ExecutionTime = 8.98438 s  ClockTime = 9 s

Coats CFL Number mean: 0.00254039 max: 0.593531
deltaT = 0.00121951
Time = 0.117073

diagonal:  Solving for Sb, Initial residual = 0, Final residual = 0, No Iterations 0
Saturation b:  Min(Sb) = 0.0011 Max(Sb) = 0.727191
DICPCG:  Solving for p, Initial residual = 0.00206592, Final residual = 8.8753e-13, No Iterations 245
ExecutionTime = 9.0625 s  ClockTime = 9 s

Coats CFL Number mean: 0.00255881 max: 0.569094
deltaT = 0.00121951
Time = 0.118293

diagonal:  Solving for Sb, Initial residual = 0, Final residual = 0, No Iterations 0
Saturation b:  Min(Sb) = 0.0011 Max(Sb) = 0.727751
DICPCG:  Solving for p, Initial residual = 0.00198884, Final residual = 8.77209e-13, No Iterations 247
ExecutionTime = 9.15625 s  ClockTime = 9 s

Coats CFL Number mean: 0.00258828 max: 0.565675
deltaT = 0.00121951
Time = 0.119512

diagonal:  Solving for Sb, Initial residual = 0, Final residual = 0, No Iterations 0
Saturation b:  Min(Sb) = 0.0011 Max(Sb) = 0.728305
DICPCG:  Solving for p, Initial residual = 0.00195609, Final residual = 8.47684e-13, No Iterations 243
ExecutionTime = 9.23438 s  ClockTime = 9 s

Coats CFL Number mean: 0.00262444 max: 0.557806
deltaT = 0.00121951
Time = 0.120732

diagonal:  Solving for Sb, Initial residual = 0, Final residual = 0, No Iterations 0
Saturation b:  Min(Sb) = 0.0011 Max(Sb) = 0.728853
DICPCG:  Solving for p, Initial residual = 0.00190256, Final residual = 8.80815e-13, No Iterations 247
ExecutionTime = 9.3125 s  ClockTime = 9 s

Coats CFL Number mean: 0.00266084 max: 0.543146
deltaT = 0.00121951
Time = 0.121951

diagonal:  Solving for Sb, Initial residual = 0, Final residual = 0, No Iterations 0
Saturation b:  Min(Sb) = 0.0011 Max(Sb) = 0.729395
DICPCG:  Solving for p, Initial residual = 0.00189132, Final residual = 9.17474e-13, No Iterations 248
ExecutionTime = 9.39062 s  ClockTime = 9 s

Coats CFL Number mean: 0.00269625 max: 0.570184
deltaT = 0.00121951
Time = 0.123171

diagonal:  Solving for Sb, Initial residual = 0, Final residual = 0, No Iterations 0
Saturation b:  Min(Sb) = 0.0011 Max(Sb) = 0.72993
DICPCG:  Solving for p, Initial residual = 0.0019432, Final residual = 9.5361e-13, No Iterations 248
ExecutionTime = 9.46875 s  ClockTime = 9 s

Coats CFL Number mean: 0.00273094 max: 0.563739
deltaT = 0.00121951
Time = 0.12439

diagonal:  Solving for Sb, Initial residual = 0, Final residual = 0, No Iterations 0
Saturation b:  Min(Sb) = 0.0011 Max(Sb) = 0.73046
DICPCG:  Solving for p, Initial residual = 0.00198161, Final residual = 9.68507e-13, No Iterations 248
ExecutionTime = 9.54688 s  ClockTime = 9 s

Coats CFL Number mean: 0.00275992 max: 0.547957
deltaT = 0.00121951
Time = 0.12561

diagonal:  Solving for Sb, Initial residual = 0, Final residual = 0, No Iterations 0
Saturation b:  Min(Sb) = 0.0011 Max(Sb) = 0.730985
DICPCG:  Solving for p, Initial residual = 0.00196714, Final residual = 9.98162e-13, No Iterations 247
ExecutionTime = 9.60938 s  ClockTime = 9 s

Coats CFL Number mean: 0.0027771 max: 0.585902
deltaT = 0.00121951
Time = 0.126829

diagonal:  Solving for Sb, Initial residual = 0, Final residual = 0, No Iterations 0
Saturation b:  Min(Sb) = 0.0011 Max(Sb) = 0.731504
DICPCG:  Solving for p, Initial residual = 0.00203954, Final residual = 9.21458e-13, No Iterations 244
ExecutionTime = 9.6875 s  ClockTime = 9 s

Coats CFL Number mean: 0.00278638 max: 0.607991
deltaT = 0.00121951
Time = 0.128049

diagonal:  Solving for Sb, Initial residual = 0, Final residual = 0, No Iterations 0
Saturation b:  Min(Sb) = 0.0011 Max(Sb) = 0.732017
DICPCG:  Solving for p, Initial residual = 0.00210508, Final residual = 9.40375e-13, No Iterations 247
ExecutionTime = 9.76562 s  ClockTime = 10 s

Coats CFL Number mean: 0.00280058 max: 0.588971
deltaT = 0.00121951
Time = 0.129268

diagonal:  Solving for Sb, Initial residual = 0, Final residual = 0, No Iterations 0
Saturation b:  Min(Sb) = 0.0011 Max(Sb) = 0.732525
DICPCG:  Solving for p, Initial residual = 0.00207404, Final residual = 8.22243e-13, No Iterations 248
ExecutionTime = 9.85938 s  ClockTime = 10 s

Coats CFL Number mean: 0.00283094 max: 0.578652
deltaT = 0.00121951
Time = 0.130488

diagonal:  Solving for Sb, Initial residual = 0, Final residual = 0, No Iterations 0
Saturation b:  Min(Sb) = 0.0011 Max(Sb) = 0.733028
DICPCG:  Solving for p, Initial residual = 0.00196806, Final residual = 9.1306e-13, No Iterations 247
ExecutionTime = 9.9375 s  ClockTime = 10 s

Coats CFL Number mean: 0.00287574 max: 0.574081
deltaT = 0.00121951
Time = 0.131707

diagonal:  Solving for Sb, Initial residual = 0, Final residual = 0, No Iterations 0
Saturation b:  Min(Sb) = 0.0011 Max(Sb) = 0.733525
DICPCG:  Solving for p, Initial residual = 0.0018663, Final residual = 8.96265e-13, No Iterations 243
ExecutionTime = 10.0156 s  ClockTime = 10 s

Coats CFL Number mean: 0.00292203 max: 0.548533
deltaT = 0.00121951
Time = 0.132927

diagonal:  Solving for Sb, Initial residual = 0, Final residual = 0, No Iterations 0
Saturation b:  Min(Sb) = 0.0011 Max(Sb) = 0.734018
DICPCG:  Solving for p, Initial residual = 0.00186586, Final residual = 9.17673e-13, No Iterations 245
ExecutionTime = 10.0938 s  ClockTime = 10 s

Coats CFL Number mean: 0.00296221 max: 0.585705
deltaT = 0.00121951
Time = 0.134146

diagonal:  Solving for Sb, Initial residual = 0, Final residual = 0, No Iterations 0
Saturation b:  Min(Sb) = 0.0011 Max(Sb) = 0.734506
DICPCG:  Solving for p, Initial residual = 0.00193723, Final residual = 9.95037e-13, No Iterations 247
ExecutionTime = 10.1562 s  ClockTime = 10 s

Coats CFL Number mean: 0.00299756 max: 0.580691
deltaT = 0.00121951
Time = 0.135366

diagonal:  Solving for Sb, Initial residual = 0, Final residual = 0, No Iterations 0
Saturation b:  Min(Sb) = 0.0011 Max(Sb) = 0.734989
DICPCG:  Solving for p, Initial residual = 0.00195724, Final residual = 9.58034e-13, No Iterations 248
ExecutionTime = 10.25 s  ClockTime = 10 s

Coats CFL Number mean: 0.00302671 max: 0.563763
deltaT = 0.00121951
Time = 0.136585

diagonal:  Solving for Sb, Initial residual = 0, Final residual = 0, No Iterations 0
Saturation b:  Min(Sb) = 0.0011 Max(Sb) = 0.735467
DICPCG:  Solving for p, Initial residual = 0.00196574, Final residual = 9.43173e-13, No Iterations 246
ExecutionTime = 10.3125 s  ClockTime = 10 s

Coats CFL Number mean: 0.00304411 max: 0.601
deltaT = 0.00121951
Time = 0.137805

diagonal:  Solving for Sb, Initial residual = 0, Final residual = 0, No Iterations 0
Saturation b:  Min(Sb) = 0.0011 Max(Sb) = 0.73594
DICPCG:  Solving for p, Initial residual = 0.00203595, Final residual = 9.42394e-13, No Iterations 248
ExecutionTime = 10.3906 s  ClockTime = 10 s

Coats CFL Number mean: 0.00305253 max: 0.624715
deltaT = 0.00121951
Time = 0.139024

diagonal:  Solving for Sb, Initial residual = 0, Final residual = 0, No Iterations 0
Saturation b:  Min(Sb) = 0.0011 Max(Sb) = 0.736409
DICPCG:  Solving for p, Initial residual = 0.00212695, Final residual = 8.10073e-13, No Iterations 246
ExecutionTime = 10.4688 s  ClockTime = 10 s

Coats CFL Number mean: 0.00306545 max: 0.604593
deltaT = 0.00121951
Time = 0.140244

diagonal:  Solving for Sb, Initial residual = 0, Final residual = 0, No Iterations 0
Saturation b:  Min(Sb) = 0.0011 Max(Sb) = 0.736873
DICPCG:  Solving for p, Initial residual = 0.0021293, Final residual = 9.25699e-13, No Iterations 248
ExecutionTime = 10.5312 s  ClockTime = 10 s

Coats CFL Number mean: 0.003098 max: 0.600012
deltaT = 0.00121951
Time = 0.141463

diagonal:  Solving for Sb, Initial residual = 0, Final residual = 0, No Iterations 0
Saturation b:  Min(Sb) = 0.0011 Max(Sb) = 0.737333
DICPCG:  Solving for p, Initial residual = 0.00204429, Final residual = 9.33063e-13, No Iterations 247
ExecutionTime = 10.6094 s  ClockTime = 10 s

Coats CFL Number mean: 0.00315001 max: 0.587958
deltaT = 0.00121951
Time = 0.142683

diagonal:  Solving for Sb, Initial residual = 0, Final residual = 0, No Iterations 0
Saturation b:  Min(Sb) = 0.0011 Max(Sb) = 0.737789
DICPCG:  Solving for p, Initial residual = 0.00184835, Final residual = 9.34685e-13, No Iterations 244
ExecutionTime = 10.6875 s  ClockTime = 10 s

Coats CFL Number mean: 0.00320493 max: 0.573945
deltaT = 0.00121951
Time = 0.143902

diagonal:  Solving for Sb, Initial residual = 0, Final residual = 0, No Iterations 0
Saturation b:  Min(Sb) = 0.0011 Max(Sb) = 0.73824
DICPCG:  Solving for p, Initial residual = 0.00182923, Final residual = 8.32403e-13, No Iterations 244
ExecutionTime = 10.75 s  ClockTime = 11 s

Coats CFL Number mean: 0.00325076 max: 0.608919
deltaT = 0.00121951
Time = 0.145122

diagonal:  Solving for Sb, Initial residual = 0, Final residual = 0, No Iterations 0
Saturation b:  Min(Sb) = 0.0011 Max(Sb) = 0.738687
DICPCG:  Solving for p, Initial residual = 0.00192523, Final residual = 8.65439e-13, No Iterations 244
ExecutionTime = 10.8281 s  ClockTime = 11 s

Coats CFL Number mean: 0.00328801 max: 0.594004
deltaT = 0.00121951
Time = 0.146341

diagonal:  Solving for Sb, Initial residual = 0, Final residual = 0, No Iterations 0
Saturation b:  Min(Sb) = 0.0011 Max(Sb) = 0.73913
DICPCG:  Solving for p, Initial residual = 0.0020068, Final residual = 8.56254e-13, No Iterations 245
ExecutionTime = 10.9062 s  ClockTime = 11 s

Coats CFL Number mean: 0.00331651 max: 0.580059
deltaT = 0.00121951
Time = 0.147561

diagonal:  Solving for Sb, Initial residual = 0, Final residual = 0, No Iterations 0
Saturation b:  Min(Sb) = 0.0011 Max(Sb) = 0.739569
DICPCG:  Solving for p, Initial residual = 0.00199529, Final residual = 9.03005e-13, No Iterations 242
ExecutionTime = 10.9844 s  ClockTime = 11 s

Coats CFL Number mean: 0.00333311 max: 0.634784
deltaT = 0.00121951
Time = 0.14878

diagonal:  Solving for Sb, Initial residual = 0, Final residual = 0, No Iterations 0
Saturation b:  Min(Sb) = 0.0011 Max(Sb) = 0.740004
DICPCG:  Solving for p, Initial residual = 0.00203963, Final residual = 9.1286e-13, No Iterations 249
ExecutionTime = 11.0625 s  ClockTime = 11 s

Coats CFL Number mean: 0.00334255 max: 0.641819
deltaT = 0.00121951
Time = 0.15

diagonal:  Solving for Sb, Initial residual = 0, Final residual = 0, No Iterations 0
Saturation b:  Min(Sb) = 0.0011 Max(Sb) = 0.740435
DICPCG:  Solving for p, Initial residual = 0.00211132, Final residual = 8.95405e-13, No Iterations 244
ExecutionTime = 11.125 s  ClockTime = 11 s

Coats CFL Number mean: 0.00336101 max: 0.613574
deltaT = 0.00121951
Time = 0.15122

diagonal:  Solving for Sb, Initial residual = 0, Final residual = 0, No Iterations 0
Saturation b:  Min(Sb) = 0.0011 Max(Sb) = 0.740862
DICPCG:  Solving for p, Initial residual = 0.00214111, Final residual = 9.98203e-13, No Iterations 244
ExecutionTime = 11.2031 s  ClockTime = 11 s

Coats CFL Number mean: 0.00340319 max: 0.621482
deltaT = 0.00121951
Time = 0.152439

diagonal:  Solving for Sb, Initial residual = 0, Final residual = 0, No Iterations 0
Saturation b:  Min(Sb) = 0.0011 Max(Sb) = 0.741285
DICPCG:  Solving for p, Initial residual = 0.00204115, Final residual = 9.66908e-13, No Iterations 245
ExecutionTime = 11.2812 s  ClockTime = 11 s

Coats CFL Number mean: 0.00346249 max: 0.59206
deltaT = 0.00121951
Time = 0.153659

diagonal:  Solving for Sb, Initial residual = 0, Final residual = 0, No Iterations 0
Saturation b:  Min(Sb) = 0.0011 Max(Sb) = 0.741705
DICPCG:  Solving for p, Initial residual = 0.00188072, Final residual = 9.33299e-13, No Iterations 244
ExecutionTime = 11.3594 s  ClockTime = 11 s

Coats CFL Number mean: 0.00351945 max: 0.625443
deltaT = 0.00121951
Time = 0.154878

diagonal:  Solving for Sb, Initial residual = 0, Final residual = 0, No Iterations 0
Saturation b:  Min(Sb) = 0.0011 Max(Sb) = 0.742121
DICPCG:  Solving for p, Initial residual = 0.00187839, Final residual = 9.26366e-13, No Iterations 241
ExecutionTime = 11.4219 s  ClockTime = 11 s

Coats CFL Number mean: 0.00356559 max: 0.628037
deltaT = 0.00121951
Time = 0.156098

diagonal:  Solving for Sb, Initial residual = 0, Final residual = 0, No Iterations 0
Saturation b:  Min(Sb) = 0.0011 Max(Sb) = 0.742533
DICPCG:  Solving for p, Initial residual = 0.00194957, Final residual = 8.01885e-13, No Iterations 244
ExecutionTime = 11.5 s  ClockTime = 11 s

Coats CFL Number mean: 0.00360145 max: 0.608927
deltaT = 0.00121951
Time = 0.157317

diagonal:  Solving for Sb, Initial residual = 0, Final residual = 0, No Iterations 0
Saturation b:  Min(Sb) = 0.0011 Max(Sb) = 0.742942
DICPCG:  Solving for p, Initial residual = 0.00200179, Final residual = 8.37496e-13, No Iterations 244
ExecutionTime = 11.5781 s  ClockTime = 11 s

Coats CFL Number mean: 0.00362612 max: 0.63109
deltaT = 0.00121951
Time = 0.158537

diagonal:  Solving for Sb, Initial residual = 0, Final residual = 0, No Iterations 0
Saturation b:  Min(Sb) = 0.0011 Max(Sb) = 0.743348
DICPCG:  Solving for p, Initial residual = 0.00206196, Final residual = 9.1174e-13, No Iterations 247
ExecutionTime = 11.6406 s  ClockTime = 11 s

Coats CFL Number mean: 0.00364113 max: 0.668779
deltaT = 0.00121951
Time = 0.159756

diagonal:  Solving for Sb, Initial residual = 0, Final residual = 0, No Iterations 0
Saturation b:  Min(Sb) = 0.0011 Max(Sb) = 0.74375
DICPCG:  Solving for p, Initial residual = 0.0021045, Final residual = 9.35592e-13, No Iterations 249
ExecutionTime = 11.7188 s  ClockTime = 12 s

Coats CFL Number mean: 0.00365856 max: 0.648681
deltaT = 0.00121951
Time = 0.160976

diagonal:  Solving for Sb, Initial residual = 0, Final residual = 0, No Iterations 0
Saturation b:  Min(Sb) = 0.0011 Max(Sb) = 0.744148
DICPCG:  Solving for p, Initial residual = 0.00212307, Final residual = 8.67764e-13, No Iterations 249
ExecutionTime = 11.7969 s  ClockTime = 12 s

Coats CFL Number mean: 0.00369628 max: 0.651191
deltaT = 0.00121951
Time = 0.162195

diagonal:  Solving for Sb, Initial residual = 0, Final residual = 0, No Iterations 0
Saturation b:  Min(Sb) = 0.0011 Max(Sb) = 0.744544
DICPCG:  Solving for p, Initial residual = 0.00208611, Final residual = 8.09283e-13, No Iterations 243
ExecutionTime = 11.875 s  ClockTime = 12 s

Coats CFL Number mean: 0.00375389 max: 0.622046
deltaT = 0.00121951
Time = 0.163415

diagonal:  Solving for Sb, Initial residual = 0, Final residual = 0, No Iterations 0
Saturation b:  Min(Sb) = 0.0011 Max(Sb) = 0.744936
DICPCG:  Solving for p, Initial residual = 0.00197003, Final residual = 8.47186e-13, No Iterations 245
ExecutionTime = 11.9375 s  ClockTime = 12 s

Coats CFL Number mean: 0.00381134 max: 0.646944
deltaT = 0.00121951
Time = 0.164634

diagonal:  Solving for Sb, Initial residual = 0, Final residual = 0, No Iterations 0
Saturation b:  Min(Sb) = 0.0011 Max(Sb) = 0.745324
DICPCG:  Solving for p, Initial residual = 0.00197425, Final residual = 9.2565e-13, No Iterations 244
ExecutionTime = 12.0156 s  ClockTime = 12 s

Coats CFL Number mean: 0.00385887 max: 0.65605
deltaT = 0.00121951
Time = 0.165854

diagonal:  Solving for Sb, Initial residual = 0, Final residual = 0, No Iterations 0
Saturation b:  Min(Sb) = 0.0011 Max(Sb) = 0.74571
DICPCG:  Solving for p, Initial residual = 0.00201497, Final residual = 9.76253e-13, No Iterations 243
ExecutionTime = 12.0938 s  ClockTime = 12 s

Coats CFL Number mean: 0.00389879 max: 0.637585
deltaT = 0.00121951
Time = 0.167073

diagonal:  Solving for Sb, Initial residual = 0, Final residual = 0, No Iterations 0
Saturation b:  Min(Sb) = 0.0011 Max(Sb) = 0.746092
DICPCG:  Solving for p, Initial residual = 0.00202645, Final residual = 9.87934e-13, No Iterations 243
ExecutionTime = 12.1562 s  ClockTime = 12 s

Coats CFL Number mean: 0.00393065 max: 0.664969
deltaT = 0.00121951
Time = 0.168293

diagonal:  Solving for Sb, Initial residual = 0, Final residual = 0, No Iterations 0
Saturation b:  Min(Sb) = 0.0011 Max(Sb) = 0.746472
DICPCG:  Solving for p, Initial residual = 0.00208333, Final residual = 9.3335e-13, No Iterations 245
ExecutionTime = 12.2344 s  ClockTime = 12 s

Coats CFL Number mean: 0.00395399 max: 0.69249
deltaT = 0.00121951
Time = 0.169512

diagonal:  Solving for Sb, Initial residual = 0, Final residual = 0, No Iterations 0
Saturation b:  Min(Sb) = 0.0011 Max(Sb) = 0.746848
DICPCG:  Solving for p, Initial residual = 0.00211124, Final residual = 9.88026e-13, No Iterations 249
ExecutionTime = 12.3125 s  ClockTime = 12 s

Coats CFL Number mean: 0.00398091 max: 0.675633
deltaT = 0.00121951
Time = 0.170732

diagonal:  Solving for Sb, Initial residual = 0, Final residual = 0, No Iterations 0
Saturation b:  Min(Sb) = 0.0011 Max(Sb) = 0.747222
DICPCG:  Solving for p, Initial residual = 0.00214125, Final residual = 7.55272e-13, No Iterations 250
ExecutionTime = 12.3906 s  ClockTime = 12 s

Coats CFL Number mean: 0.00402965 max: 0.678907
deltaT = 0.00121951
Time = 0.171951

diagonal:  Solving for Sb, Initial residual = 0, Final residual = 0, No Iterations 0
Saturation b:  Min(Sb) = 0.0011 Max(Sb) = 0.747592
DICPCG:  Solving for p, Initial residual = 0.00205628, Final residual = 7.77267e-13, No Iterations 250
ExecutionTime = 12.4688 s  ClockTime = 12 s

Coats CFL Number mean: 0.0040942 max: 0.639702
deltaT = 0.00121951
Time = 0.173171

diagonal:  Solving for Sb, Initial residual = 0, Final residual = 0, No Iterations 0
Saturation b:  Min(Sb) = 0.0011 Max(Sb) = 0.74796
DICPCG:  Solving for p, Initial residual = 0.00197775, Final residual = 8.45783e-13, No Iterations 244
ExecutionTime = 12.5312 s  ClockTime = 12 s

Coats CFL Number mean: 0.00414924 max: 0.681193
deltaT = 0.00121951
Time = 0.17439

diagonal:  Solving for Sb, Initial residual = 0, Final residual = 0, No Iterations 0
Saturation b:  Min(Sb) = 0.0011 Max(Sb) = 0.748324
DICPCG:  Solving for p, Initial residual = 0.00206351, Final residual = 9.60476e-13, No Iterations 245
ExecutionTime = 12.6094 s  ClockTime = 12 s

Coats CFL Number mean: 0.00418805 max: 0.677598
deltaT = 0.00121951
Time = 0.17561

diagonal:  Solving for Sb, Initial residual = 0, Final residual = 0, No Iterations 0
Saturation b:  Min(Sb) = 0.0011 Max(Sb) = 0.748686
DICPCG:  Solving for p, Initial residual = 0.00212432, Final residual = 9.43207e-13, No Iterations 244
ExecutionTime = 12.6875 s  ClockTime = 12 s

Coats CFL Number mean: 0.00422046 max: 0.685153
deltaT = 0.00121951
Time = 0.176829

diagonal:  Solving for Sb, Initial residual = 0, Final residual = 0, No Iterations 0
Saturation b:  Min(Sb) = 0.0011 Max(Sb) = 0.749045
DICPCG:  Solving for p, Initial residual = 0.00214073, Final residual = 8.4343e-13, No Iterations 245
ExecutionTime = 12.7812 s  ClockTime = 13 s

Coats CFL Number mean: 0.00425312 max: 0.699953
deltaT = 0.00121951
Time = 0.178049

diagonal:  Solving for Sb, Initial residual = 0, Final residual = 0, No Iterations 0
Saturation b:  Min(Sb) = 0.0011 Max(Sb) = 0.749402
DICPCG:  Solving for p, Initial residual = 0.00215786, Final residual = 8.94213e-13, No Iterations 245
ExecutionTime = 12.8594 s  ClockTime = 13 s

Coats CFL Number mean: 0.0042891 max: 0.714431
deltaT = 0.00121951
Time = 0.179268

diagonal:  Solving for Sb, Initial residual = 0, Final residual = 0, No Iterations 0
Saturation b:  Min(Sb) = 0.0011 Max(Sb) = 0.749755
DICPCG:  Solving for p, Initial residual = 0.00213801, Final residual = 9.59973e-13, No Iterations 249
ExecutionTime = 12.9375 s  ClockTime = 13 s

Coats CFL Number mean: 0.00434245 max: 0.718834
deltaT = 0.00121951
Time = 0.180488

diagonal:  Solving for Sb, Initial residual = 0, Final residual = 0, No Iterations 0
Saturation b:  Min(Sb) = 0.0011 Max(Sb) = 0.750107
DICPCG:  Solving for p, Initial residual = 0.00210975, Final residual = 9.96756e-13, No Iterations 249
ExecutionTime = 13.0156 s  ClockTime = 13 s

Coats CFL Number mean: 0.00441695 max: 0.691322
deltaT = 0.00121951
Time = 0.181707

diagonal:  Solving for Sb, Initial residual = 0, Final residual = 0, No Iterations 0
Saturation b:  Min(Sb) = 0.0011 Max(Sb) = 0.750455
DICPCG:  Solving for p, Initial residual = 0.002065, Final residual = 9.16823e-13, No Iterations 248
ExecutionTime = 13.0938 s  ClockTime = 13 s

Coats CFL Number mean: 0.00448712 max: 0.67469
deltaT = 0.00121951
Time = 0.182927

diagonal:  Solving for Sb, Initial residual = 0, Final residual = 0, No Iterations 0
Saturation b:  Min(Sb) = 0.0011 Max(Sb) = 0.750801
DICPCG:  Solving for p, Initial residual = 0.0021555, Final residual = 9.96696e-13, No Iterations 246
ExecutionTime = 13.1719 s  ClockTime = 13 s

Coats CFL Number mean: 0.00453746 max: 0.719544
deltaT = 0.00121951
Time = 0.184146

diagonal:  Solving for Sb, Initial residual = 0, Final residual = 0, No Iterations 0
Saturation b:  Min(Sb) = 0.0011 Max(Sb) = 0.751144
DICPCG:  Solving for p, Initial residual = 0.00222137, Final residual = 9.30254e-13, No Iterations 246
ExecutionTime = 13.2344 s  ClockTime = 13 s

Coats CFL Number mean: 0.00457942 max: 0.715626
deltaT = 0.00121951
Time = 0.185366

diagonal:  Solving for Sb, Initial residual = 0, Final residual = 0, No Iterations 0
Saturation b:  Min(Sb) = 0.0011 Max(Sb) = 0.751485
DICPCG:  Solving for p, Initial residual = 0.0021956, Final residual = 9.75938e-13, No Iterations 246
ExecutionTime = 13.3125 s  ClockTime = 13 s

Coats CFL Number mean: 0.00462522 max: 0.741802
deltaT = 0.00121951
Time = 0.186585

diagonal:  Solving for Sb, Initial residual = 0, Final residual = 0, No Iterations 0
Saturation b:  Min(Sb) = 0.0011 Max(Sb) = 0.751823
DICPCG:  Solving for p, Initial residual = 0.00227064, Final residual = 9.23637e-13, No Iterations 247
ExecutionTime = 13.3906 s  ClockTime = 13 s

Coats CFL Number mean: 0.00467588 max: 0.735978
deltaT = 0.00121951
Time = 0.187805

diagonal:  Solving for Sb, Initial residual = 0, Final residual = 0, No Iterations 0
Saturation b:  Min(Sb) = 0.0011 Max(Sb) = 0.752159
DICPCG:  Solving for p, Initial residual = 0.00232353, Final residual = 9.4753e-13, No Iterations 247
ExecutionTime = 13.4688 s  ClockTime = 13 s

Coats CFL Number mean: 0.00474554 max: 0.750572
deltaT = 0.00121951
Time = 0.189024

diagonal:  Solving for Sb, Initial residual = 0, Final residual = 0, No Iterations 0
Saturation b:  Min(Sb) = 0.0011 Max(Sb) = 0.752492
DICPCG:  Solving for p, Initial residual = 0.00222061, Final residual = 9.36811e-13, No Iterations 244
ExecutionTime = 13.5312 s  ClockTime = 13 s

Coats CFL Number mean: 0.00483273 max: 0.774026
deltaT = 0.00109756
Time = 0.190122

diagonal:  Solving for Sb, Initial residual = 0, Final residual = 0, No Iterations 0
Saturation b:  Min(Sb) = 0.0011 Max(Sb) = 0.75279
DICPCG:  Solving for p, Initial residual = 0.00200991, Final residual = 9.53377e-13, No Iterations 246
ExecutionTime = 13.6094 s  ClockTime = 13 s

Coats CFL Number mean: 0.00441778 max: 0.739859
deltaT = 0.00109756
Time = 0.19122

diagonal:  Solving for Sb, Initial residual = 0, Final residual = 0, No Iterations 0
Saturation b:  Min(Sb) = 0.0011 Max(Sb) = 0.753087
DICPCG:  Solving for p, Initial residual = 0.00203067, Final residual = 9.37674e-13, No Iterations 246
ExecutionTime = 13.6875 s  ClockTime = 13 s

Coats CFL Number mean: 0.00447644 max: 0.720017
deltaT = 0.00109756
Time = 0.192317

diagonal:  Solving for Sb, Initial residual = 0, Final residual = 0, No Iterations 0
Saturation b:  Min(Sb) = 0.0011 Max(Sb) = 0.753381
DICPCG:  Solving for p, Initial residual = 0.0020595, Final residual = 8.37499e-13, No Iterations 243
ExecutionTime = 13.75 s  ClockTime = 14 s

Coats CFL Number mean: 0.0045205 max: 0.725515
deltaT = 0.00109756
Time = 0.193415

diagonal:  Solving for Sb, Initial residual = 0, Final residual = 0, No Iterations 0
Saturation b:  Min(Sb) = 0.0011 Max(Sb) = 0.753673
DICPCG:  Solving for p, Initial residual = 0.00214714, Final residual = 9.66476e-13, No Iterations 245
ExecutionTime = 13.8281 s  ClockTime = 14 s

Coats CFL Number mean: 0.00456412 max: 0.787611
deltaT = 0.000940767
Time = 0.194355

diagonal:  Solving for Sb, Initial residual = 0, Final residual = 0, No Iterations 0
Saturation b:  Min(Sb) = 0.0011 Max(Sb) = 0.753922
DICPCG:  Solving for p, Initial residual = 0.00194962, Final residual = 8.90395e-13, No Iterations 244
ExecutionTime = 13.9062 s  ClockTime = 14 s

Coats CFL Number mean: 0.0039573 max: 0.663693
deltaT = 0.000940767
Time = 0.195296

diagonal:  Solving for Sb, Initial residual = 0, Final residual = 0, No Iterations 0
Saturation b:  Min(Sb) = 0.0011 Max(Sb) = 0.75417
DICPCG:  Solving for p, Initial residual = 0.00191279, Final residual = 8.98538e-13, No Iterations 248
ExecutionTime = 13.9688 s  ClockTime = 14 s

Coats CFL Number mean: 0.00401237 max: 0.631529
deltaT = 0.000940767
Time = 0.196237

diagonal:  Solving for Sb, Initial residual = 0, Final residual = 0, No Iterations 0
Saturation b:  Min(Sb) = 0.0011 Max(Sb) = 0.754416
DICPCG:  Solving for p, Initial residual = 0.00184412, Final residual = 9.55774e-13, No Iterations 247
ExecutionTime = 14.0469 s  ClockTime = 14 s

Coats CFL Number mean: 0.00407002 max: 0.695919
deltaT = 0.000940767
Time = 0.197178

diagonal:  Solving for Sb, Initial residual = 0, Final residual = 0, No Iterations 0
Saturation b:  Min(Sb) = 0.0011 Max(Sb) = 0.754661
DICPCG:  Solving for p, Initial residual = 0.00185512, Final residual = 8.86552e-13, No Iterations 244
ExecutionTime = 14.125 s  ClockTime = 14 s

Coats CFL Number mean: 0.00413104 max: 0.713342
deltaT = 0.000940767
Time = 0.198118

diagonal:  Solving for Sb, Initial residual = 0, Final residual = 0, No Iterations 0
Saturation b:  Min(Sb) = 0.0011 Max(Sb) = 0.754905
DICPCG:  Solving for p, Initial residual = 0.0018368, Final residual = 9.84279e-13, No Iterations 244
ExecutionTime = 14.1875 s  ClockTime = 14 s

Coats CFL Number mean: 0.00419436 max: 0.688961
deltaT = 0.000940767
Time = 0.199059

diagonal:  Solving for Sb, Initial residual = 0, Final residual = 0, No Iterations 0
Saturation b:  Min(Sb) = 0.0011 Max(Sb) = 0.755148
DICPCG:  Solving for p, Initial residual = 0.0017969, Final residual = 8.89134e-13, No Iterations 244
ExecutionTime = 14.2656 s  ClockTime = 14 s

Coats CFL Number mean: 0.00424761 max: 0.701623
deltaT = 0.000940767
Time = 0.2

diagonal:  Solving for Sb, Initial residual = 0, Final residual = 0, No Iterations 0
Saturation b:  Min(Sb) = 0.0011 Max(Sb) = 0.755389
DICPCG:  Solving for p, Initial residual = 0.00184301, Final residual = 9.30795e-13, No Iterations 246
ExecutionTime = 14.4062 s  ClockTime = 14 s

Coats CFL Number mean: 0.00428809 max: 0.755528
deltaT = 0.000925926
Time = 0.200926

diagonal:  Solving for Sb, Initial residual = 0, Final residual = 0, No Iterations 0
Saturation b:  Min(Sb) = 0.0011 Max(Sb) = 0.755625
DICPCG:  Solving for p, Initial residual = 0.00189761, Final residual = 9.88557e-13, No Iterations 243
ExecutionTime = 14.4844 s  ClockTime = 14 s

Coats CFL Number mean: 0.00426236 max: 0.730346
deltaT = 0.000943563
Time = 0.201869

diagonal:  Solving for Sb, Initial residual = 0, Final residual = 0, No Iterations 0
Saturation b:  Min(Sb) = 0.0011 Max(Sb) = 0.755864
DICPCG:  Solving for p, Initial residual = 0.00198186, Final residual = 8.49094e-13, No Iterations 245
ExecutionTime = 14.5625 s  ClockTime = 14 s

Coats CFL Number mean: 0.00439502 max: 0.741631
deltaT = 0.000952723
Time = 0.202822

diagonal:  Solving for Sb, Initial residual = 0, Final residual = 0, No Iterations 0
Saturation b:  Min(Sb) = 0.0011 Max(Sb) = 0.756105
DICPCG:  Solving for p, Initial residual = 0.00200292, Final residual = 9.92461e-13, No Iterations 246
ExecutionTime = 14.6406 s  ClockTime = 14 s

Coats CFL Number mean: 0.00449585 max: 0.825697
deltaT = 0.00085998
Time = 0.203682

diagonal:  Solving for Sb, Initial residual = 0, Final residual = 0, No Iterations 0
Saturation b:  Min(Sb) = 0.0011 Max(Sb) = 0.756321
DICPCG:  Solving for p, Initial residual = 0.00178822, Final residual = 9.54476e-13, No Iterations 246
ExecutionTime = 14.7031 s  ClockTime = 15 s

Coats CFL Number mean: 0.00411313 max: 0.733114
deltaT = 0.000875616
Time = 0.204558

diagonal:  Solving for Sb, Initial residual = 0, Final residual = 0, No Iterations 0
Saturation b:  Min(Sb) = 0.0011 Max(Sb) = 0.75654
DICPCG:  Solving for p, Initial residual = 0.00181635, Final residual = 9.89809e-13, No Iterations 244
ExecutionTime = 14.7656 s  ClockTime = 15 s

Coats CFL Number mean: 0.00424934 max: 0.708697
deltaT = 0.000926623
Time = 0.205484

diagonal:  Solving for Sb, Initial residual = 0, Final residual = 0, No Iterations 0
Saturation b:  Min(Sb) = 0.0011 Max(Sb) = 0.75677
DICPCG:  Solving for p, Initial residual = 0.00194618, Final residual = 7.5364e-13, No Iterations 242
ExecutionTime = 14.8438 s  ClockTime = 15 s

Coats CFL Number mean: 0.00455342 max: 0.716951
deltaT = 0.000964445
Time = 0.206449

diagonal:  Solving for Sb, Initial residual = 0, Final residual = 0, No Iterations 0
Saturation b:  Min(Sb) = 0.0011 Max(Sb) = 0.757009
DICPCG:  Solving for p, Initial residual = 0.00204783, Final residual = 8.44791e-13, No Iterations 244
ExecutionTime = 14.9219 s  ClockTime = 15 s

Coats CFL Number mean: 0.00478371 max: 0.839907
deltaT = 0.000858267
Time = 0.207307

diagonal:  Solving for Sb, Initial residual = 0, Final residual = 0, No Iterations 0
Saturation b:  Min(Sb) = 0.0011 Max(Sb) = 0.757221
DICPCG:  Solving for p, Initial residual = 0.00188844, Final residual = 8.80266e-13, No Iterations 244
ExecutionTime = 15 s  ClockTime = 15 s

Coats CFL Number mean: 0.00429703 max: 0.73509
deltaT = 0.000874461
Time = 0.208182

diagonal:  Solving for Sb, Initial residual = 0, Final residual = 0, No Iterations 0
Saturation b:  Min(Sb) = 0.0011 Max(Sb) = 0.757435
DICPCG:  Solving for p, Initial residual = 0.00186387, Final residual = 9.67904e-13, No Iterations 246
ExecutionTime = 15.0781 s  ClockTime = 15 s

Coats CFL Number mean: 0.00443174 max: 0.704901
deltaT = 0.000927459
Time = 0.209109

diagonal:  Solving for Sb, Initial residual = 0, Final residual = 0, No Iterations 0
Saturation b:  Min(Sb) = 0.0011 Max(Sb) = 0.757661
DICPCG:  Solving for p, Initial residual = 0.00190791, Final residual = 9.27017e-13, No Iterations 248
ExecutionTime = 15.1562 s  ClockTime = 15 s

Coats CFL Number mean: 0.0047688 max: 0.783491
deltaT = 0.000882436
Time = 0.209991

diagonal:  Solving for Sb, Initial residual = 0, Final residual = 0, No Iterations 0
Saturation b:  Min(Sb) = 0.0011 Max(Sb) = 0.757875
DICPCG:  Solving for p, Initial residual = 0.00179528, Final residual = 9.90986e-13, No Iterations 243
ExecutionTime = 15.2344 s  ClockTime = 15 s

Coats CFL Number mean: 0.00460228 max: 0.796786
deltaT = 0.000825766
Time = 0.210817

diagonal:  Solving for Sb, Initial residual = 0, Final residual = 0, No Iterations 0
Saturation b:  Min(Sb) = 0.0011 Max(Sb) = 0.758075
DICPCG:  Solving for p, Initial residual = 0.00169915, Final residual = 9.60571e-13, No Iterations 246
ExecutionTime = 15.2969 s  ClockTime = 15 s

Coats CFL Number mean: 0.00436503 max: 0.75701
deltaT = 0.00081819
Time = 0.211635

diagonal:  Solving for Sb, Initial residual = 0, Final residual = 0, No Iterations 0
Saturation b:  Min(Sb) = 0.0011 Max(Sb) = 0.758272
DICPCG:  Solving for p, Initial residual = 0.00171345, Final residual = 9.75993e-13, No Iterations 244
ExecutionTime = 15.375 s  ClockTime = 15 s

Coats CFL Number mean: 0.00437682 max: 0.712143
deltaT = 0.000857908
Time = 0.212493

diagonal:  Solving for Sb, Initial residual = 0, Final residual = 0, No Iterations 0
Saturation b:  Min(Sb) = 0.0011 Max(Sb) = 0.758478
DICPCG:  Solving for p, Initial residual = 0.00186578, Final residual = 8.82064e-13, No Iterations 244
ExecutionTime = 15.4531 s  ClockTime = 15 s

Coats CFL Number mean: 0.00463559 max: 0.72853
deltaT = 0.000875066
Time = 0.213368

diagonal:  Solving for Sb, Initial residual = 0, Final residual = 0, No Iterations 0
Saturation b:  Min(Sb) = 0.0011 Max(Sb) = 0.758686
DICPCG:  Solving for p, Initial residual = 0.001995, Final residual = 9.89223e-13, No Iterations 244
ExecutionTime = 15.5312 s  ClockTime = 15 s

Coats CFL Number mean: 0.00476781 max: 0.734416
deltaT = 0.000893109
Time = 0.214262

diagonal:  Solving for Sb, Initial residual = 0, Final residual = 0, No Iterations 0
Saturation b:  Min(Sb) = 0.0011 Max(Sb) = 0.758898
DICPCG:  Solving for p, Initial residual = 0.00210689, Final residual = 9.6669e-13, No Iterations 243
ExecutionTime = 15.6094 s  ClockTime = 15 s

Coats CFL Number mean: 0.00490561 max: 0.862604
deltaT = 0.000772419
Time = 0.215034

diagonal:  Solving for Sb, Initial residual = 0, Final residual = 0, No Iterations 0
Saturation b:  Min(Sb) = 0.0011 Max(Sb) = 0.759081
DICPCG:  Solving for p, Initial residual = 0.00185505, Final residual = 8.84645e-13, No Iterations 244
ExecutionTime = 15.6719 s  ClockTime = 16 s

Coats CFL Number mean: 0.0042789 max: 0.735637
deltaT = 0.000786723
Time = 0.215821

diagonal:  Solving for Sb, Initial residual = 0, Final residual = 0, No Iterations 0
Saturation b:  Min(Sb) = 0.0011 Max(Sb) = 0.759266
DICPCG:  Solving for p, Initial residual = 0.00181401, Final residual = 9.82483e-13, No Iterations 243
ExecutionTime = 15.75 s  ClockTime = 16 s

Coats CFL Number mean: 0.00441148 max: 0.705022
deltaT = 0.000833459
Time = 0.216654

diagonal:  Solving for Sb, Initial residual = 0, Final residual = 0, No Iterations 0
Saturation b:  Min(Sb) = 0.0011 Max(Sb) = 0.759461
DICPCG:  Solving for p, Initial residual = 0.00178535, Final residual = 9.60187e-13, No Iterations 245
ExecutionTime = 15.8281 s  ClockTime = 16 s

Coats CFL Number mean: 0.00475879 max: 0.747635
deltaT = 0.000833459
Time = 0.217488

diagonal:  Solving for Sb, Initial residual = 0, Final residual = 0, No Iterations 0
Saturation b:  Min(Sb) = 0.0011 Max(Sb) = 0.759656
DICPCG:  Solving for p, Initial residual = 0.00164092, Final residual = 9.41818e-13, No Iterations 244
ExecutionTime = 15.8906 s  ClockTime = 16 s

Coats CFL Number mean: 0.00484969 max: 0.727603
deltaT = 0.000850643
Time = 0.218338

diagonal:  Solving for Sb, Initial residual = 0, Final residual = 0, No Iterations 0
Saturation b:  Min(Sb) = 0.0011 Max(Sb) = 0.759854
DICPCG:  Solving for p, Initial residual = 0.00167655, Final residual = 8.63405e-13, No Iterations 246
ExecutionTime = 15.9844 s  ClockTime = 16 s

Coats CFL Number mean: 0.00501486 max: 0.87224
deltaT = 0.000729123
Time = 0.219067

diagonal:  Solving for Sb, Initial residual = 0, Final residual = 0, No Iterations 0
Saturation b:  Min(Sb) = 0.0011 Max(Sb) = 0.760023
DICPCG:  Solving for p, Initial residual = 0.00156781, Final residual = 8.59914e-13, No Iterations 243
ExecutionTime = 16.0625 s  ClockTime = 16 s

Coats CFL Number mean: 0.00432236 max: 0.736226
deltaT = 0.000742501
Time = 0.21981

diagonal:  Solving for Sb, Initial residual = 0, Final residual = 0, No Iterations 0
Saturation b:  Min(Sb) = 0.0011 Max(Sb) = 0.760194
DICPCG:  Solving for p, Initial residual = 0.00173117, Final residual = 9.68896e-13, No Iterations 246
ExecutionTime = 16.1562 s  ClockTime = 16 s

Coats CFL Number mean: 0.00442029 max: 0.704061
deltaT = 0.000786178
Time = 0.220596

diagonal:  Solving for Sb, Initial residual = 0, Final residual = 0, No Iterations 0
Saturation b:  Min(Sb) = 0.0011 Max(Sb) = 0.760374
DICPCG:  Solving for p, Initial residual = 0.00193235, Final residual = 9.36318e-13, No Iterations 248
ExecutionTime = 16.2344 s  ClockTime = 16 s

Coats CFL Number mean: 0.0047171 max: 0.731569
deltaT = 0.00080206
Time = 0.221398

diagonal:  Solving for Sb, Initial residual = 0, Final residual = 0, No Iterations 0
Saturation b:  Min(Sb) = 0.0011 Max(Sb) = 0.760558
DICPCG:  Solving for p, Initial residual = 0.0019308, Final residual = 8.71015e-13, No Iterations 249
ExecutionTime = 16.3281 s  ClockTime = 16 s

Coats CFL Number mean: 0.00487862 max: 0.69994
deltaT = 0.000854368
Time = 0.222252

diagonal:  Solving for Sb, Initial residual = 0, Final residual = 0, No Iterations 0
Saturation b:  Min(Sb) = 0.0011 Max(Sb) = 0.760753
DICPCG:  Solving for p, Initial residual = 0.00192943, Final residual = 9.94132e-13, No Iterations 243
ExecutionTime = 16.4062 s  ClockTime = 16 s

Coats CFL Number mean: 0.00528166 max: 0.903257
deltaT = 0.000706796
Time = 0.222959

diagonal:  Solving for Sb, Initial residual = 0, Final residual = 0, No Iterations 0
Saturation b:  Min(Sb) = 0.0011 Max(Sb) = 0.760913
DICPCG:  Solving for p, Initial residual = 0.00163584, Final residual = 8.6705e-13, No Iterations 244
ExecutionTime = 16.5 s  ClockTime = 16 s

Coats CFL Number mean: 0.00441198 max: 0.779076
deltaT = 0.000675796
Time = 0.223635

diagonal:  Solving for Sb, Initial residual = 0, Final residual = 0, No Iterations 0
Saturation b:  Min(Sb) = 0.0011 Max(Sb) = 0.761066
DICPCG:  Solving for p, Initial residual = 0.00160034, Final residual = 7.49172e-13, No Iterations 243
ExecutionTime = 16.5938 s  ClockTime = 16 s

Coats CFL Number mean: 0.00424721 max: 0.71095
deltaT = 0.000707083
Time = 0.224342

diagonal:  Solving for Sb, Initial residual = 0, Final residual = 0, No Iterations 0
Saturation b:  Min(Sb) = 0.0011 Max(Sb) = 0.761225
DICPCG:  Solving for p, Initial residual = 0.00167434, Final residual = 8.03686e-13, No Iterations 243
ExecutionTime = 16.6719 s  ClockTime = 17 s

Coats CFL Number mean: 0.00447278 max: 0.696158
deltaT = 0.000756579
Time = 0.225099

diagonal:  Solving for Sb, Initial residual = 0, Final residual = 0, No Iterations 0
Saturation b:  Min(Sb) = 0.0011 Max(Sb) = 0.761395
[...]
ExecutionTime = 380.469 s  ClockTime = 382 s

Coats CFL Number mean: 0.0299136 max: 0.164153
deltaT = 0.00121951
Time = 4.93537

diagonal:  Solving for Sb, Initial residual = 0, Final residual = 0, No Iterations 0
Saturation b:  Min(Sb) = 0.0011 Max(Sb) = 0.886364
DICPCG:  Solving for p, Initial residual = 0.000517121, Final residual = 8.65097e-13, No Iterations 239
ExecutionTime = 380.547 s  ClockTime = 382 s

Coats CFL Number mean: 0.0299094 max: 0.168797
deltaT = 0.00121951
Time = 4.93659

diagonal:  Solving for Sb, Initial residual = 0, Final residual = 0, No Iterations 0
Saturation b:  Min(Sb) = 0.0011 Max(Sb) = 0.886371
DICPCG:  Solving for p, Initial residual = 0.000521333, Final residual = 8.09978e-13, No Iterations 240
ExecutionTime = 380.625 s  ClockTime = 382 s

Coats CFL Number mean: 0.0299052 max: 0.172226
deltaT = 0.00121951
Time = 4.9378

diagonal:  Solving for Sb, Initial residual = 0, Final residual = 0, No Iterations 0
Saturation b:  Min(Sb) = 0.0011 Max(Sb) = 0.886379
DICPCG:  Solving for p, Initial residual = 0.000525057, Final residual = 9.09358e-13, No Iterations 240
ExecutionTime = 380.688 s  ClockTime = 382 s

Coats CFL Number mean: 0.029901 max: 0.174508
deltaT = 0.00121951
Time = 4.93902

diagonal:  Solving for Sb, Initial residual = 0, Final residual = 0, No Iterations 0
Saturation b:  Min(Sb) = 0.0011 Max(Sb) = 0.886386
DICPCG:  Solving for p, Initial residual = 0.000528362, Final residual = 9.09197e-13, No Iterations 240
ExecutionTime = 380.734 s  ClockTime = 382 s

Coats CFL Number mean: 0.0298968 max: 0.175736
deltaT = 0.00121951
Time = 4.94024

diagonal:  Solving for Sb, Initial residual = 0, Final residual = 0, No Iterations 0
Saturation b:  Min(Sb) = 0.0011 Max(Sb) = 0.886394
DICPCG:  Solving for p, Initial residual = 0.000530477, Final residual = 9.71433e-13, No Iterations 240
ExecutionTime = 380.812 s  ClockTime = 382 s

Coats CFL Number mean: 0.0298928 max: 0.176029
deltaT = 0.00121951
Time = 4.94146

diagonal:  Solving for Sb, Initial residual = 0, Final residual = 0, No Iterations 0
Saturation b:  Min(Sb) = 0.0011 Max(Sb) = 0.886401
DICPCG:  Solving for p, Initial residual = 0.00053151, Final residual = 7.71769e-13, No Iterations 241
ExecutionTime = 380.891 s  ClockTime = 382 s

Coats CFL Number mean: 0.0298891 max: 0.175515
deltaT = 0.00121951
Time = 4.94268

diagonal:  Solving for Sb, Initial residual = 0, Final residual = 0, No Iterations 0
Saturation b:  Min(Sb) = 0.0011 Max(Sb) = 0.886408
DICPCG:  Solving for p, Initial residual = 0.000531751, Final residual = 8.7563e-13, No Iterations 241
ExecutionTime = 380.953 s  ClockTime = 382 s

Coats CFL Number mean: 0.0298856 max: 0.17433
deltaT = 0.00121951
Time = 4.9439

diagonal:  Solving for Sb, Initial residual = 0, Final residual = 0, No Iterations 0
Saturation b:  Min(Sb) = 0.0011 Max(Sb) = 0.886416
DICPCG:  Solving for p, Initial residual = 0.000531066, Final residual = 9.15381e-13, No Iterations 241
ExecutionTime = 381.031 s  ClockTime = 383 s

Coats CFL Number mean: 0.0298825 max: 0.172589
deltaT = 0.00121951
Time = 4.94512

diagonal:  Solving for Sb, Initial residual = 0, Final residual = 0, No Iterations 0
Saturation b:  Min(Sb) = 0.0011 Max(Sb) = 0.886423
DICPCG:  Solving for p, Initial residual = 0.000530355, Final residual = 8.82558e-13, No Iterations 241
ExecutionTime = 381.094 s  ClockTime = 383 s

Coats CFL Number mean: 0.0298797 max: 0.170408
deltaT = 0.00121951
Time = 4.94634

diagonal:  Solving for Sb, Initial residual = 0, Final residual = 0, No Iterations 0
Saturation b:  Min(Sb) = 0.0011 Max(Sb) = 0.88643
DICPCG:  Solving for p, Initial residual = 0.000528116, Final residual = 9.00568e-13, No Iterations 241
ExecutionTime = 381.156 s  ClockTime = 383 s

Coats CFL Number mean: 0.0298773 max: 0.167887
deltaT = 0.00121951
Time = 4.94756

diagonal:  Solving for Sb, Initial residual = 0, Final residual = 0, No Iterations 0
Saturation b:  Min(Sb) = 0.0011 Max(Sb) = 0.886438
DICPCG:  Solving for p, Initial residual = 0.000524241, Final residual = 9.18118e-13, No Iterations 241
ExecutionTime = 381.234 s  ClockTime = 383 s

Coats CFL Number mean: 0.0298753 max: 0.165115
deltaT = 0.00121951
Time = 4.94878

diagonal:  Solving for Sb, Initial residual = 0, Final residual = 0, No Iterations 0
Saturation b:  Min(Sb) = 0.0011 Max(Sb) = 0.886445
DICPCG:  Solving for p, Initial residual = 0.000519863, Final residual = 9.79381e-13, No Iterations 241
ExecutionTime = 381.312 s  ClockTime = 383 s

Coats CFL Number mean: 0.0298736 max: 0.162192
deltaT = 0.00121951
Time = 4.95

diagonal:  Solving for Sb, Initial residual = 0, Final residual = 0, No Iterations 0
Saturation b:  Min(Sb) = 0.0011 Max(Sb) = 0.886453
DICPCG:  Solving for p, Initial residual = 0.00051277, Final residual = 9.37412e-13, No Iterations 241
ExecutionTime = 381.375 s  ClockTime = 383 s

Coats CFL Number mean: 0.0298723 max: 0.159146
deltaT = 0.00121951
Time = 4.95122

diagonal:  Solving for Sb, Initial residual = 0, Final residual = 0, No Iterations 0
Saturation b:  Min(Sb) = 0.0011 Max(Sb) = 0.88646
DICPCG:  Solving for p, Initial residual = 0.000508126, Final residual = 9.96996e-13, No Iterations 241
ExecutionTime = 381.453 s  ClockTime = 383 s

Coats CFL Number mean: 0.0298714 max: 0.156038
deltaT = 0.00121951
Time = 4.95244

diagonal:  Solving for Sb, Initial residual = 0, Final residual = 0, No Iterations 0
Saturation b:  Min(Sb) = 0.0011 Max(Sb) = 0.886467
DICPCG:  Solving for p, Initial residual = 0.00050307, Final residual = 8.262e-13, No Iterations 242
ExecutionTime = 381.516 s  ClockTime = 383 s

Coats CFL Number mean: 0.0298708 max: 0.152911
deltaT = 0.00121951
Time = 4.95366

diagonal:  Solving for Sb, Initial residual = 0, Final residual = 0, No Iterations 0
Saturation b:  Min(Sb) = 0.0011 Max(Sb) = 0.886475
DICPCG:  Solving for p, Initial residual = 0.000498298, Final residual = 8.18966e-13, No Iterations 242
ExecutionTime = 381.594 s  ClockTime = 383 s

Coats CFL Number mean: 0.0298705 max: 0.149797
deltaT = 0.00121951
Time = 4.95488

diagonal:  Solving for Sb, Initial residual = 0, Final residual = 0, No Iterations 0
Saturation b:  Min(Sb) = 0.0011 Max(Sb) = 0.886482
DICPCG:  Solving for p, Initial residual = 0.000494155, Final residual = 9.11583e-13, No Iterations 241
ExecutionTime = 381.672 s  ClockTime = 383 s

Coats CFL Number mean: 0.0298706 max: 0.14672
deltaT = 0.00121951
Time = 4.9561

diagonal:  Solving for Sb, Initial residual = 0, Final residual = 0, No Iterations 0
Saturation b:  Min(Sb) = 0.0011 Max(Sb) = 0.886489
DICPCG:  Solving for p, Initial residual = 0.000490048, Final residual = 8.81247e-13, No Iterations 241
ExecutionTime = 381.734 s  ClockTime = 383 s

Coats CFL Number mean: 0.0298709 max: 0.143701
deltaT = 0.00121951
Time = 4.95732

diagonal:  Solving for Sb, Initial residual = 0, Final residual = 0, No Iterations 0
Saturation b:  Min(Sb) = 0.0011 Max(Sb) = 0.886497
DICPCG:  Solving for p, Initial residual = 0.000484905, Final residual = 8.68061e-13, No Iterations 241
ExecutionTime = 381.797 s  ClockTime = 383 s

Coats CFL Number mean: 0.0298715 max: 0.147563
deltaT = 0.00121951
Time = 4.95854

diagonal:  Solving for Sb, Initial residual = 0, Final residual = 0, No Iterations 0
Saturation b:  Min(Sb) = 0.0011 Max(Sb) = 0.886504
DICPCG:  Solving for p, Initial residual = 0.000480582, Final residual = 8.93141e-13, No Iterations 241
ExecutionTime = 381.875 s  ClockTime = 383 s

Coats CFL Number mean: 0.0298723 max: 0.150685
deltaT = 0.00121951
Time = 4.95976

diagonal:  Solving for Sb, Initial residual = 0, Final residual = 0, No Iterations 0
Saturation b:  Min(Sb) = 0.0011 Max(Sb) = 0.886511
DICPCG:  Solving for p, Initial residual = 0.000477009, Final residual = 8.14853e-13, No Iterations 241
ExecutionTime = 381.953 s  ClockTime = 383 s

Coats CFL Number mean: 0.0298734 max: 0.152965
deltaT = 0.00121951
Time = 4.96098

diagonal:  Solving for Sb, Initial residual = 0, Final residual = 0, No Iterations 0
Saturation b:  Min(Sb) = 0.0011 Max(Sb) = 0.886519
DICPCG:  Solving for p, Initial residual = 0.000472646, Final residual = 8.19583e-13, No Iterations 241
ExecutionTime = 382.062 s  ClockTime = 384 s

Coats CFL Number mean: 0.0298746 max: 0.154489
deltaT = 0.00121951
Time = 4.9622

diagonal:  Solving for Sb, Initial residual = 0, Final residual = 0, No Iterations 0
Saturation b:  Min(Sb) = 0.0011 Max(Sb) = 0.886526
DICPCG:  Solving for p, Initial residual = 0.000467693, Final residual = 9.77296e-13, No Iterations 240
ExecutionTime = 382.172 s  ClockTime = 384 s

Coats CFL Number mean: 0.0298758 max: 0.15535
deltaT = 0.00121951
Time = 4.96341

diagonal:  Solving for Sb, Initial residual = 0, Final residual = 0, No Iterations 0
Saturation b:  Min(Sb) = 0.0011 Max(Sb) = 0.886533
DICPCG:  Solving for p, Initial residual = 0.000463256, Final residual = 9.49681e-13, No Iterations 240
ExecutionTime = 382.266 s  ClockTime = 384 s

Coats CFL Number mean: 0.029877 max: 0.155658
deltaT = 0.00121951
Time = 4.96463

diagonal:  Solving for Sb, Initial residual = 0, Final residual = 0, No Iterations 0
Saturation b:  Min(Sb) = 0.0011 Max(Sb) = 0.886541
DICPCG:  Solving for p, Initial residual = 0.000459138, Final residual = 8.33074e-13, No Iterations 240
ExecutionTime = 382.359 s  ClockTime = 384 s

Coats CFL Number mean: 0.0298782 max: 0.155478
deltaT = 0.00121951
Time = 4.96585

diagonal:  Solving for Sb, Initial residual = 0, Final residual = 0, No Iterations 0
Saturation b:  Min(Sb) = 0.0011 Max(Sb) = 0.886548
DICPCG:  Solving for p, Initial residual = 0.000458004, Final residual = 9.43661e-13, No Iterations 239
ExecutionTime = 382.453 s  ClockTime = 384 s

Coats CFL Number mean: 0.0298793 max: 0.1549
deltaT = 0.00121951
Time = 4.96707

diagonal:  Solving for Sb, Initial residual = 0, Final residual = 0, No Iterations 0
Saturation b:  Min(Sb) = 0.0011 Max(Sb) = 0.886555
DICPCG:  Solving for p, Initial residual = 0.000456461, Final residual = 9.83918e-13, No Iterations 238
ExecutionTime = 382.531 s  ClockTime = 384 s

Coats CFL Number mean: 0.0298802 max: 0.153987
deltaT = 0.00121951
Time = 4.96829

diagonal:  Solving for Sb, Initial residual = 0, Final residual = 0, No Iterations 0
Saturation b:  Min(Sb) = 0.0011 Max(Sb) = 0.886563
DICPCG:  Solving for p, Initial residual = 0.000456222, Final residual = 8.38126e-13, No Iterations 238
ExecutionTime = 382.641 s  ClockTime = 384 s

Coats CFL Number mean: 0.0298809 max: 0.152802
deltaT = 0.00121951
Time = 4.96951

diagonal:  Solving for Sb, Initial residual = 0, Final residual = 0, No Iterations 0
Saturation b:  Min(Sb) = 0.0011 Max(Sb) = 0.88657
DICPCG:  Solving for p, Initial residual = 0.000457193, Final residual = 8.67386e-13, No Iterations 239
ExecutionTime = 382.781 s  ClockTime = 384 s

Coats CFL Number mean: 0.0298816 max: 0.151394
deltaT = 0.00121951
Time = 4.97073

diagonal:  Solving for Sb, Initial residual = 0, Final residual = 0, No Iterations 0
Saturation b:  Min(Sb) = 0.0011 Max(Sb) = 0.886577
DICPCG:  Solving for p, Initial residual = 0.000458628, Final residual = 8.57624e-13, No Iterations 239
ExecutionTime = 383.078 s  ClockTime = 385 s

Coats CFL Number mean: 0.029882 max: 0.149808
deltaT = 0.00121951
Time = 4.97195

diagonal:  Solving for Sb, Initial residual = 0, Final residual = 0, No Iterations 0
Saturation b:  Min(Sb) = 0.0011 Max(Sb) = 0.886585
DICPCG:  Solving for p, Initial residual = 0.000460365, Final residual = 8.21602e-13, No Iterations 239
ExecutionTime = 383.484 s  ClockTime = 385 s

Coats CFL Number mean: 0.0298821 max: 0.14808
deltaT = 0.00121951
Time = 4.97317

diagonal:  Solving for Sb, Initial residual = 0, Final residual = 0, No Iterations 0
Saturation b:  Min(Sb) = 0.0011 Max(Sb) = 0.886592
DICPCG:  Solving for p, Initial residual = 0.000461892, Final residual = 7.91273e-13, No Iterations 239
ExecutionTime = 383.672 s  ClockTime = 385 s

Coats CFL Number mean: 0.0298818 max: 0.146241
deltaT = 0.00121951
Time = 4.97439

diagonal:  Solving for Sb, Initial residual = 0, Final residual = 0, No Iterations 0
Saturation b:  Min(Sb) = 0.0011 Max(Sb) = 0.886599
DICPCG:  Solving for p, Initial residual = 0.000465126, Final residual = 9.98701e-13, No Iterations 238
ExecutionTime = 383.875 s  ClockTime = 385 s

Coats CFL Number mean: 0.0298811 max: 0.144316
deltaT = 0.00121951
Time = 4.97561

diagonal:  Solving for Sb, Initial residual = 0, Final residual = 0, No Iterations 0
Saturation b:  Min(Sb) = 0.0011 Max(Sb) = 0.886607
DICPCG:  Solving for p, Initial residual = 0.00047003, Final residual = 9.70835e-13, No Iterations 238
ExecutionTime = 384.078 s  ClockTime = 386 s

Coats CFL Number mean: 0.0298801 max: 0.142327
deltaT = 0.00121951
Time = 4.97683

diagonal:  Solving for Sb, Initial residual = 0, Final residual = 0, No Iterations 0
Saturation b:  Min(Sb) = 0.0011 Max(Sb) = 0.886614
DICPCG:  Solving for p, Initial residual = 0.000474206, Final residual = 9.70735e-13, No Iterations 238
ExecutionTime = 384.266 s  ClockTime = 386 s

Coats CFL Number mean: 0.0298786 max: 0.140622
deltaT = 0.00121951
Time = 4.97805

diagonal:  Solving for Sb, Initial residual = 0, Final residual = 0, No Iterations 0
Saturation b:  Min(Sb) = 0.0011 Max(Sb) = 0.886621
DICPCG:  Solving for p, Initial residual = 0.000478578, Final residual = 9.77762e-13, No Iterations 238
ExecutionTime = 384.391 s  ClockTime = 386 s

Coats CFL Number mean: 0.0298767 max: 0.14009
deltaT = 0.00121951
Time = 4.97927

diagonal:  Solving for Sb, Initial residual = 0, Final residual = 0, No Iterations 0
Saturation b:  Min(Sb) = 0.0011 Max(Sb) = 0.886629
DICPCG:  Solving for p, Initial residual = 0.000482531, Final residual = 7.79006e-13, No Iterations 239
ExecutionTime = 384.5 s  ClockTime = 386 s

Coats CFL Number mean: 0.0298744 max: 0.139397
deltaT = 0.00121951
Time = 4.98049

diagonal:  Solving for Sb, Initial residual = 0, Final residual = 0, No Iterations 0
Saturation b:  Min(Sb) = 0.0011 Max(Sb) = 0.886636
DICPCG:  Solving for p, Initial residual = 0.000487818, Final residual = 7.94469e-13, No Iterations 239
ExecutionTime = 384.594 s  ClockTime = 386 s

Coats CFL Number mean: 0.0298717 max: 0.141322
deltaT = 0.00121951
Time = 4.98171

diagonal:  Solving for Sb, Initial residual = 0, Final residual = 0, No Iterations 0
Saturation b:  Min(Sb) = 0.0011 Max(Sb) = 0.886643
DICPCG:  Solving for p, Initial residual = 0.00049329, Final residual = 8.19502e-13, No Iterations 239
ExecutionTime = 384.672 s  ClockTime = 386 s

Coats CFL Number mean: 0.0298686 max: 0.146951
deltaT = 0.00121951
Time = 4.98293

diagonal:  Solving for Sb, Initial residual = 0, Final residual = 0, No Iterations 0
Saturation b:  Min(Sb) = 0.0011 Max(Sb) = 0.886651
DICPCG:  Solving for p, Initial residual = 0.000498423, Final residual = 8.46033e-13, No Iterations 239
ExecutionTime = 384.734 s  ClockTime = 386 s

Coats CFL Number mean: 0.0298652 max: 0.151632
deltaT = 0.00121951
Time = 4.98415

diagonal:  Solving for Sb, Initial residual = 0, Final residual = 0, No Iterations 0
Saturation b:  Min(Sb) = 0.0011 Max(Sb) = 0.886658
DICPCG:  Solving for p, Initial residual = 0.000503926, Final residual = 8.82549e-13, No Iterations 239
ExecutionTime = 384.797 s  ClockTime = 386 s

Coats CFL Number mean: 0.0298616 max: 0.157565
deltaT = 0.00121951
Time = 4.98537

diagonal:  Solving for Sb, Initial residual = 0, Final residual = 0, No Iterations 0
Saturation b:  Min(Sb) = 0.0011 Max(Sb) = 0.886665
DICPCG:  Solving for p, Initial residual = 0.000507695, Final residual = 9.38783e-13, No Iterations 239
ExecutionTime = 384.875 s  ClockTime = 386 s

Coats CFL Number mean: 0.0298578 max: 0.163319
deltaT = 0.00121951
Time = 4.98659

diagonal:  Solving for Sb, Initial residual = 0, Final residual = 0, No Iterations 0
Saturation b:  Min(Sb) = 0.0011 Max(Sb) = 0.886673
DICPCG:  Solving for p, Initial residual = 0.000512367, Final residual = 9.6423e-13, No Iterations 239
ExecutionTime = 384.938 s  ClockTime = 386 s

Coats CFL Number mean: 0.0298538 max: 0.167862
deltaT = 0.00121951
Time = 4.9878

diagonal:  Solving for Sb, Initial residual = 0, Final residual = 0, No Iterations 0
Saturation b:  Min(Sb) = 0.0011 Max(Sb) = 0.88668
DICPCG:  Solving for p, Initial residual = 0.000516395, Final residual = 9.13462e-13, No Iterations 239
ExecutionTime = 385 s  ClockTime = 387 s

Coats CFL Number mean: 0.0298497 max: 0.171214
deltaT = 0.00121951
Time = 4.98902

diagonal:  Solving for Sb, Initial residual = 0, Final residual = 0, No Iterations 0
Saturation b:  Min(Sb) = 0.0011 Max(Sb) = 0.886687
DICPCG:  Solving for p, Initial residual = 0.000519725, Final residual = 9.52876e-13, No Iterations 238
ExecutionTime = 385.078 s  ClockTime = 387 s

Coats CFL Number mean: 0.0298457 max: 0.17344
deltaT = 0.00121951
Time = 4.99024

diagonal:  Solving for Sb, Initial residual = 0, Final residual = 0, No Iterations 0
Saturation b:  Min(Sb) = 0.0011 Max(Sb) = 0.886694
DICPCG:  Solving for p, Initial residual = 0.000521814, Final residual = 8.25256e-13, No Iterations 239
ExecutionTime = 385.141 s  ClockTime = 387 s

Coats CFL Number mean: 0.0298418 max: 0.174638
deltaT = 0.00121951
Time = 4.99146

diagonal:  Solving for Sb, Initial residual = 0, Final residual = 0, No Iterations 0
Saturation b:  Min(Sb) = 0.0011 Max(Sb) = 0.886702
DICPCG:  Solving for p, Initial residual = 0.000522504, Final residual = 9.80532e-13, No Iterations 239
ExecutionTime = 385.203 s  ClockTime = 387 s

Coats CFL Number mean: 0.029838 max: 0.174918
deltaT = 0.00121951
Time = 4.99268

diagonal:  Solving for Sb, Initial residual = 0, Final residual = 0, No Iterations 0
Saturation b:  Min(Sb) = 0.0011 Max(Sb) = 0.886709
DICPCG:  Solving for p, Initial residual = 0.000523482, Final residual = 8.76449e-13, No Iterations 240
ExecutionTime = 385.281 s  ClockTime = 387 s

Coats CFL Number mean: 0.0298343 max: 0.174405
deltaT = 0.00121951
Time = 4.9939

diagonal:  Solving for Sb, Initial residual = 0, Final residual = 0, No Iterations 0
Saturation b:  Min(Sb) = 0.0011 Max(Sb) = 0.886716
DICPCG:  Solving for p, Initial residual = 0.000524069, Final residual = 9.279e-13, No Iterations 240
ExecutionTime = 385.359 s  ClockTime = 387 s

Coats CFL Number mean: 0.029831 max: 0.173226
deltaT = 0.00121951
Time = 4.99512

diagonal:  Solving for Sb, Initial residual = 0, Final residual = 0, No Iterations 0
Saturation b:  Min(Sb) = 0.0011 Max(Sb) = 0.886724
DICPCG:  Solving for p, Initial residual = 0.000522689, Final residual = 9.5798e-13, No Iterations 240
ExecutionTime = 385.422 s  ClockTime = 387 s

Coats CFL Number mean: 0.0298279 max: 0.171512
deltaT = 0.00121951
Time = 4.99634

diagonal:  Solving for Sb, Initial residual = 0, Final residual = 0, No Iterations 0
Saturation b:  Min(Sb) = 0.0011 Max(Sb) = 0.886731
DICPCG:  Solving for p, Initial residual = 0.000521291, Final residual = 8.67107e-13, No Iterations 241
ExecutionTime = 385.484 s  ClockTime = 387 s

Coats CFL Number mean: 0.029825 max: 0.169358
deltaT = 0.00121951
Time = 4.99756

diagonal:  Solving for Sb, Initial residual = 0, Final residual = 0, No Iterations 0
Saturation b:  Min(Sb) = 0.0011 Max(Sb) = 0.886738
DICPCG:  Solving for p, Initial residual = 0.000518045, Final residual = 8.89123e-13, No Iterations 241
ExecutionTime = 385.547 s  ClockTime = 387 s

Coats CFL Number mean: 0.0298225 max: 0.166869
deltaT = 0.00121951
Time = 4.99878

diagonal:  Solving for Sb, Initial residual = 0, Final residual = 0, No Iterations 0
Saturation b:  Min(Sb) = 0.0011 Max(Sb) = 0.886746
DICPCG:  Solving for p, Initial residual = 0.000514576, Final residual = 8.8428e-13, No Iterations 241
ExecutionTime = 385.625 s  ClockTime = 387 s

Coats CFL Number mean: 0.0298203 max: 0.16413
deltaT = 0.00121951
Time = 5

diagonal:  Solving for Sb, Initial residual = 0, Final residual = 0, No Iterations 0
Saturation b:  Min(Sb) = 0.0011 Max(Sb) = 0.886753
DICPCG:  Solving for p, Initial residual = 0.000510649, Final residual = 8.92279e-13, No Iterations 241
ExecutionTime = 385.734 s  ClockTime = 387 s

End

